<?xml version="1.0" encoding="UTF-8"?>

<!-- generated on 2025-06-20 12:12:50 by Eclipse SUMO polyconvert Version 1.23.1
<polyconvertConfiguration xmlns:xsi="http://www.w3.org/2001/XMLSchema-instance" xsi:noNamespaceSchemaLocation="http://sumo.dlr.de/xsd/polyconvertConfiguration.xsd">

    <input>
        <net-file value="test.net.xml"/>
        <osm-files value="map.osm"/>
        <type-file value="typemap.xml"/>
    </input>

    <output>
        <output-file value="map.poly.xml"/>
    </output>

    <report>
        <xml-validation value="never"/>
    </report>

</polyconvertConfiguration>
-->

<additional> <!-- xmlns:xsi="http://www.w3.org/2001/XMLSchema-instance" xsi:noNamespaceSchemaLocation="http://sumo.dlr.de/xsd/additional_file.xsd"> -->
    <location netOffset="-391781.75,-5817143.37" convBoundary="-2.30,0.00,1060.76,1472.50" origBoundary="13.405539,52.493890,13.421607,52.507004" projParameter="+proj=utm +zone=33 +ellps=WGS84 +datum=WGS84 +units=m +no_defs"/>

    <poly id="1092845470" type="unknown" color="51,128,255" fill="0" layer="-1.00" shape="430.398834,1042.272714 433.867663,1037.901197 438.354080,1032.249893 440.065480,1030.098026"/>
    <poly id="1092845474" type="building" color="255,230,230" fill="1" layer="-1.00" shape="440.065480,1030.098026 458.215865,1007.532870 460.033677,1005.278523 449.074238,996.650892 446.004281,1000.635290 434.911202,991.799206 438.076911,987.846078 428.441828,980.157459 428.013436,979.821928 417.095244,993.448490 408.073903,1004.707697 408.495507,1005.043375 418.081843,1012.677390 421.346886,1008.610790 432.391710,1017.414522 429.179738,1021.424309 440.065480,1030.098026"/>
    <poly id="1092845476" type="building" color="255,230,230" fill="1" layer="-1.00" shape="466.050028,1020.101611 470.490519,1029.963100 484.547948,1023.222339 523.427483,1004.563754 518.373166,995.194193 513.809135,997.319704 513.255835,996.552939 510.663104,997.845076 504.890014,985.742831 506.669576,983.600618 508.020006,982.324656 509.952182,980.946888 512.133402,980.086641 513.982537,979.255948 515.646950,978.362550 517.373370,977.200730 519.066287,975.750332 520.599432,974.136532 521.497509,972.670220 522.340500,970.860166 523.214795,969.238592 524.448026,967.264177 525.855639,965.808923 527.759156,964.053458 530.392332,962.437744 532.837778,961.549445 535.253820,960.250075 536.879420,959.134988 538.401934,957.654959 539.679863,956.169176 540.697432,954.577840 541.542877,952.879010 542.340268,950.847412 542.906616,947.263039 532.558118,938.933370 531.454212,940.304056 529.240104,943.067820 523.225231,950.555278 501.664519,977.401330 499.556107,980.029256 483.177454,1000.418816 470.936449,1015.654442 472.603950,1017.064356 468.705287,1018.874839 466.050028,1020.101611"/>
    <poly id="1124992785" type="amenity" color="237,199,199" fill="1" layer="-1.00" shape="312.060523,1091.245415 315.223095,1092.399805 318.810808,1082.639861 315.648230,1081.485469 312.060523,1091.245415"/>
    <poly id="113552643" type="tourism" color="207,245,201" fill="1" layer="-2.00" shape="356.663583,1151.887696 353.200120,1145.699136 346.666735,1148.424536 340.942183,1138.847353 320.808493,1131.735029 316.720322,1132.025340 281.628533,1148.699392 281.280063,1150.142519 281.635309,1151.781568 290.229663,1170.798389 303.758868,1207.009853 326.581275,1199.630495 344.345253,1158.023056 356.663583,1151.887696"/>
    <poly id="113552646" type="building" color="255,230,230" fill="1" layer="-1.00" shape="400.027740,1150.098836 401.666395,1149.272728 403.412663,1148.399744 414.142751,1169.762193 412.517431,1170.576876 410.871995,1171.403129 409.851142,1171.915199 399.121039,1150.552759 400.027740,1150.098836"/>
    <poly id="113552646#1" type="tourism" color="207,245,201" fill="1" layer="-2.00" shape="400.027740,1150.098836 401.666395,1149.272728 403.412663,1148.399744 414.142751,1169.762193 412.517431,1170.576876 410.871995,1171.403129 409.851142,1171.915199 399.121039,1150.552759 400.027740,1150.098836"/>
    <poly id="113552647" type="unknown" color="51,128,255" fill="0" layer="-1.00" shape="392.118611,1140.603044 402.325247,1135.393343"/>
    <poly id="113552655" type="building" color="255,230,230" fill="1" layer="-1.00" shape="395.784973,1133.178209 402.325247,1135.393343 410.168623,1137.579816 406.145619,1130.646859 402.465022,1124.463043 399.019554,1126.497293 397.964317,1126.064282 395.784973,1133.178209"/>
    <poly id="113558510" type="unknown" color="51,128,255" fill="0" layer="-1.00" shape="430.398834,1042.272714 398.065538,1017.090263"/>
    <poly id="113558515" type="unknown" color="51,128,255" fill="0" layer="-1.00" shape="430.398834,1042.272714 426.136104,1047.596408"/>
    <poly id="1141807023" type="parking" color="184,184,179" fill="1" layer="-1.00" shape="281.697270,1182.647971 283.804930,1181.844875 279.512465,1170.700618 277.834720,1166.976469 277.404801,1171.503716 281.697270,1182.647971"/>
    <poly id="1147413313" type="parking" color="184,184,179" fill="1" layer="-1.00" shape="411.002118,1075.770369 416.533100,1073.156130 415.548524,1070.996796 410.027263,1073.744352 411.002118,1075.770369"/>
    <poly id="1147597473" type="parking" color="184,184,179" fill="1" layer="-1.00" shape="367.403144,1188.171851 359.772213,1172.805783 358.066437,1173.666765 365.750934,1188.998269 367.403144,1188.171851"/>
    <poly id="1147597477" type="parking" color="184,184,179" fill="1" layer="-1.00" shape="376.194490,1190.548827 362.980388,1164.311635 361.193900,1165.207775 374.401223,1191.445111 376.194490,1190.548827"/>
    <poly id="1147597480" type="parking" color="184,184,179" fill="1" layer="-1.00" shape="355.362602,1168.362813 358.066437,1173.666765 359.772213,1172.805783 357.075410,1167.512802 355.362602,1168.362813"/>
    <poly id="1174716698" type="building" color="255,230,230" fill="1" layer="-1.00" shape="220.314263,1097.650744 225.869819,1107.865790 238.787929,1102.139762 246.824563,1119.254868 293.112267,1097.270959 282.682238,1076.614306 270.129509,1083.211240 265.451322,1074.289868 258.251082,1078.187337 255.812914,1073.545234 243.955532,1079.648433 245.012711,1082.017559 236.410095,1086.368807 235.177184,1084.036938 225.765352,1088.951286 228.014483,1093.642050 220.314263,1097.650744"/>
    <poly id="122665576" type="building" color="255,230,230" fill="1" layer="-1.00" shape="243.206906,1030.570262 244.284871,1032.649614 246.408994,1036.597597 237.168132,1041.263346 238.164312,1043.945386 207.011124,1059.720863 205.252901,1056.354590 198.042382,1059.785019 194.884634,1054.847235 199.935363,1052.321228 212.917391,1045.792546 230.929852,1036.738372 243.206906,1030.570262"/>
    <poly id="122665579" type="building" color="255,230,230" fill="1" layer="-1.00" shape="255.125199,1023.219441 274.045514,1013.755968 282.985203,1009.286092 284.086701,1011.509592 286.966741,1017.098945 314.292136,1070.165252 312.767977,1074.649823 307.514886,1089.264663 293.112267,1097.270959 288.583205,1088.335155 284.586186,1080.433624 282.682238,1076.614306 260.045655,1032.346891 256.637859,1025.611917 255.125199,1023.219441"/>
    <poly id="122665581" type="building" color="255,230,230" fill="1" layer="-1.00" shape="220.314263,1097.650744 228.014483,1093.642050 225.765352,1088.951286 235.177184,1084.036938 236.410095,1086.368807 245.012711,1082.017559 243.955532,1079.648433 255.812914,1073.545234 258.251082,1078.187337 265.451322,1074.289868 270.129509,1083.211240 282.682238,1076.614306 260.045655,1032.346891 256.637859,1025.611917 255.125199,1023.219441 250.253085,1025.841602 250.999406,1026.737616 243.206906,1030.570262 244.284871,1032.649614 246.408994,1036.597597 237.168132,1041.263346 238.164312,1043.945386 207.011124,1059.720863 205.252901,1056.354590 198.042382,1059.785019 212.549662,1084.257406 220.314263,1097.650744"/>
    <poly id="1315600058" type="amenity" color="237,199,199" fill="1" layer="-1.00" shape="293.641406,1187.893025 285.981519,1167.831884 283.970340,1168.699619 291.601127,1188.672378 293.641406,1187.893025"/>
    <poly id="1315600059" type="amenity" color="237,199,199" fill="1" layer="-1.00" shape="285.981519,1167.831884 283.397907,1161.824287 281.386481,1162.680901 282.252293,1164.687040 283.111317,1166.693330 283.970340,1168.699619 285.981519,1167.831884"/>
    <poly id="1387801209" type="unknown" color="51,128,255" fill="1" layer="-1.00" shape="615.700603,964.547551 562.322805,990.011189 505.457956,1017.143306 500.041514,1019.721540 463.854487,1036.985813 463.252876,1037.110317 462.729531,1037.088442 462.244953,1036.976694 461.634048,1036.678557 461.183834,1036.276739 458.093908,1032.249758 457.741282,1031.345056 457.667908,1030.478724 457.786287,1029.686067 458.194558,1028.798016 467.146380,1017.462539 480.968188,1000.311600 493.598650,984.255132 497.745033,978.266408 499.585134,975.789037 527.112225,941.412071 529.298451,938.615535 543.204544,921.262642 598.428255,853.351384 599.232680,852.565922 600.346446,851.951707 601.541712,851.647273 602.865990,851.651576 603.970679,851.860996 604.917600,852.307558 605.717639,852.868621 606.481349,853.630776 607.208731,854.594024 619.430655,881.443385 619.786484,882.804255 619.847771,884.049189 619.639466,885.077492 619.285258,886.264784 618.750183,887.255751 618.051723,888.228051 617.065997,889.106511 615.888027,889.889045 593.018533,900.773184 618.729973,955.923989 619.542305,957.664299 619.736650,958.783909 619.769811,959.984951 619.583825,961.101784 619.283383,961.954071 618.429805,962.974287 617.594584,963.593510 615.700603,964.547551"/>
    <poly id="1387801211" type="unknown" color="51,128,255" fill="0" layer="-1.00" shape="553.734896,740.966049 555.072428,740.335781 556.227483,740.054475 557.542805,739.958816 558.783029,740.154122 559.758590,740.666812 560.751201,741.646483 566.533687,754.171433 568.900995,759.304850 573.720711,769.736729 588.037645,800.746201 601.285491,829.464667 601.586978,830.515159 601.695486,831.436359 601.630400,832.183330 601.383518,833.001059 601.071154,833.619930 587.706508,850.293101 569.063649,873.369286 555.798782,889.628642 530.125385,921.550025 527.970398,924.223471 520.243054,933.818279 517.460151,937.273326 496.324257,963.676092 481.418707,981.885665 463.354578,1004.059367 459.572080,1008.682564 453.554217,1016.025523 451.015932,1019.174790 442.015174,1031.679764 440.250700,1033.888435 432.320155,1043.799435 428.199220,1049.086626 423.177933,1055.116913 421.817153,1056.537786 420.340439,1057.627384 414.656758,1060.400762 381.528413,1076.541264 378.951469,1077.621703 377.214281,1077.982630 375.249448,1078.181654 373.333037,1078.112553 371.396689,1077.754576"/>
    <poly id="1392206141" type="unknown" color="51,128,255" fill="1" layer="-1.00" shape="446.796043,1042.813411 446.750917,1042.614108 446.765653,1042.357851 446.843430,1042.189228 451.401459,1037.014845 451.845253,1036.815917 452.239642,1036.840627 452.555520,1037.000593 454.519331,1040.151005 454.652934,1040.359490 454.742207,1040.713607 454.636119,1041.138785 454.298045,1041.513428 449.171791,1044.007446 448.617446,1044.119785 448.094591,1044.120156 447.710597,1043.950560 447.487049,1043.666161 446.796043,1042.813411"/>
    <poly id="1392206154" type="unknown" color="51,128,255" fill="0" layer="-1.00" shape="379.471049,1095.369792 380.310293,1093.392880 381.382502,1091.510989 382.604582,1089.959627 383.923706,1088.806720 385.545379,1087.825196 387.171212,1087.032749 408.031825,1077.182144 411.002118,1075.770369 416.533100,1073.156130 415.548524,1070.996796 418.847477,1069.399756 425.277425,1066.287269 426.280646,1068.368302 480.570800,1041.848209 484.205483,1040.076920 495.603299,1034.674324 513.358734,1026.261126 514.405857,1026.015562 515.358750,1026.117022 516.154617,1026.488994 516.458875,1026.738239 520.346787,1033.707635 534.536713,1059.879275 537.813812,1065.938522 540.333400,1070.590094 549.349661,1087.216779 551.479812,1091.142498 557.092390,1101.512427 562.626378,1111.706048 564.870232,1115.862952 573.065568,1130.983242 575.267461,1135.085434 577.255409,1134.084801 577.873218,1133.770788 579.183297,1136.223445 579.724083,1137.658142 580.023116,1138.597412 580.114737,1139.986337 579.742887,1141.296423 578.792919,1142.563571 577.875612,1143.462793 576.252212,1144.366398 575.368166,1142.761201"/>
    <poly id="1392206162" type="parking" color="184,184,179" fill="1" layer="-1.00" shape="407.759782,1023.764917 425.751810,1037.534459 434.677310,1025.932438 416.685267,1012.162863 407.759782,1023.764917"/>
    <poly id="145038737" type="building" color="255,230,230" fill="1" layer="-1.00" shape="261.450353,1187.344699 258.248195,1178.535476 259.003189,1178.285164 259.241126,1178.914191 272.598174,1173.701571 290.089311,1218.994812 285.834281,1220.646385 286.719290,1222.908036 282.436382,1224.526844 282.133694,1223.732329 277.165384,1225.677810 263.447361,1190.149353 262.605363,1190.457218 262.243963,1189.463702 262.762638,1189.274235 261.964691,1187.266603 261.450353,1187.344699"/>
    <poly id="145038738" type="building" color="255,230,230" fill="1" layer="-1.00" shape="261.450353,1187.344699 258.498080,1188.644897 234.725561,1199.127837 234.026128,1197.585395 229.644146,1188.546254 253.928351,1177.862849 258.131489,1176.012097 259.003189,1178.285164 258.248195,1178.535476 261.450353,1187.344699"/>
    <poly id="184341599" type="residential" color="235,235,227" fill="1" layer="-3.00" shape="615.700603,964.547551 617.594584,963.593510 618.429805,962.974287 619.283383,961.954071 619.583825,961.101784 619.769811,959.984951 619.736650,958.783909 619.542305,957.664299 618.729973,955.923989 593.018533,900.773184 615.888027,889.889045 617.065997,889.106511 618.051723,888.228051 618.750183,887.255751 619.285258,886.264784 619.639466,885.077492 619.847771,884.049189 619.786484,882.804255 619.430655,881.443385 607.208731,854.594024 606.481349,853.630776 605.717639,852.868621 604.917600,852.307558 603.970679,851.860996 602.865990,851.651576 601.541712,851.647273 600.346446,851.951707 599.232680,852.565922 598.428255,853.351384 543.204544,921.262642 529.298451,938.615535 527.112225,941.412071 499.585134,975.789037 497.745033,978.266408 493.598650,984.255132 480.968188,1000.311600 467.146380,1017.462539 458.194558,1028.798016 457.786287,1029.686067 457.667908,1030.478724 457.741282,1031.345056 458.093908,1032.249758 461.183834,1036.276739 461.634048,1036.678557 462.244953,1036.976694 462.729531,1037.088442 463.252876,1037.110317 463.854487,1036.985813 500.041514,1019.721540 505.457956,1017.143306 562.322805,990.011189 615.700603,964.547551"/>
    <poly id="304494629" type="building" color="255,230,230" fill="1" layer="-1.00" shape="402.206235,1025.355928 403.515040,1023.424328 395.305730,1017.885400 393.990139,1019.817152 402.206235,1025.355928"/>
    <poly id="304495384" type="building" color="255,230,230" fill="1" layer="-1.00" shape="301.052424,1110.938739 303.524919,1102.649920 307.514886,1089.264663 293.112267,1097.270959 291.020663,1098.496542 253.938928,1116.394131 250.054484,1118.226736 248.078622,1118.848901 246.824563,1119.254868 253.778547,1134.079312 256.664624,1132.546893 301.052424,1110.938739"/>
    <poly id="342431690" type="building" color="255,230,230" fill="1" layer="-1.00" shape="331.066702,1037.882182 335.337304,1035.696191 338.323486,1041.483530 334.053133,1043.680641 331.066702,1037.882182"/>
    <poly id="37892819" type="building" color="255,230,230" fill="1" layer="-1.00" shape="426.525835,1156.381572 434.707173,1171.156999 461.871396,1156.171714 460.853226,1154.335808 462.181398,1153.594441 465.333860,1159.233536 466.776122,1161.827917 472.337238,1158.734592 469.064759,1152.886709 470.654692,1152.006058 463.184110,1142.066541 461.969846,1142.738638 460.711621,1140.485165 461.820658,1137.189289 465.054094,1135.393424 465.937444,1136.965234 469.197785,1135.157653 465.910736,1129.265582 456.586092,1134.444625 455.638720,1132.740694 453.391482,1133.991884 454.218339,1135.464788 452.487588,1136.426433 455.378923,1141.615037 454.185266,1142.297810 448.080263,1145.670176 445.785769,1146.933537 445.283833,1146.032120 426.525835,1156.381572"/>
    <poly id="37892824" type="building" color="255,230,230" fill="1" layer="-1.00" shape="381.573869,1145.875846 392.118611,1140.603044 389.768521,1135.636244 390.050522,1131.479473 378.461333,1127.862119 375.916141,1135.629502 381.573869,1145.875846"/>
    <poly id="37892826" type="building" color="255,230,230" fill="1" layer="-1.00" shape="378.461333,1127.862119 382.116305,1115.908622 400.791647,1121.551067 402.465022,1124.463043 399.019554,1126.497293 397.964317,1126.064282 393.672447,1124.812286 393.588670,1124.090840 392.306653,1124.152432 390.050522,1131.479473 378.461333,1127.862119"/>
    <poly id="37892827" type="building" color="255,230,230" fill="1" layer="-1.00" shape="410.737234,1127.930876 406.145619,1130.646859 402.465022,1124.463043 400.791647,1121.551067 382.116305,1115.908622 385.978268,1103.794789 395.813688,1107.016778 397.968987,1107.759410 395.970437,1114.758083 401.070773,1116.337247 401.437389,1115.717167 402.048893,1115.425525 404.336747,1116.020586 404.460885,1117.342029 410.384669,1127.337746 410.737234,1127.930876"/>
    <poly id="37892828" type="building" color="255,230,230" fill="1" layer="-1.00" shape="406.145619,1130.646859 410.737234,1127.930876 410.384669,1127.337746 415.812498,1124.358565 422.803481,1136.567450 425.922371,1142.529958 416.132978,1148.186660 410.168623,1137.579816 406.145619,1130.646859"/>
    <poly id="381209254" type="unknown" color="51,128,255" fill="0" layer="-1.00" shape="313.392721,1098.704905 315.065488,1093.260095 312.057620,1092.347104 310.371527,1097.803336"/>
    <poly id="381209255" type="unknown" color="51,128,255" fill="0" layer="-1.00" shape="342.730160,1067.380417 348.108903,1069.264970 349.157357,1066.304226 343.751218,1064.409147"/>
    <poly id="381209256" type="unknown" color="51,128,255" fill="0" layer="-1.00" shape="346.010231,1132.482118 340.663286,1130.496722 339.567099,1133.447392 344.927614,1135.432489"/>
    <poly id="381209257" type="unknown" color="51,128,255" fill="0" layer="-1.00" shape="377.623032,1104.579537 375.861235,1109.992901 378.863516,1110.961691 380.625071,1105.537206"/>
    <poly id="381209258" type="unknown" color="51,128,255" fill="0" layer="-1.00" shape="317.850576,1075.728555 315.897324,1081.079393 318.854330,1082.149292 320.820914,1076.787034"/>
    <poly id="381209259" type="unknown" color="51,128,255" fill="0" layer="-1.00" shape="323.253296,1127.430485 328.580625,1129.449677 329.697413,1126.509678 324.349721,1124.490933"/>
    <poly id="381209260" type="unknown" color="51,128,255" fill="0" layer="-1.00" shape="374.934573,1123.733528 376.614429,1118.299712 373.599557,1117.375710 371.920193,1122.831772"/>
    <poly id="381209261" type="unknown" color="51,128,255" fill="0" layer="-1.00" shape="362.361513,1070.787302 356.982778,1068.902732 355.941351,1071.874448 361.340445,1073.758568"/>
    <poly id="429097633" type="landuse" color="194,194,130" fill="1" layer="-3.00" shape="346.647157,1121.006748 333.812312,1116.637991 331.536170,1115.341671 329.470601,1113.740273 327.518696,1112.058480 326.095377,1110.020098 324.936544,1107.041180 324.220688,1103.518388 324.333904,1100.333423 325.183377,1097.588476 326.367520,1093.389583 327.732047,1089.364760 329.487742,1086.143634 331.453067,1083.808095 332.888717,1082.396676 334.668620,1081.200228 338.134595,1079.788623 340.273933,1079.496722 342.464452,1079.370609 346.932773,1080.307107 349.881516,1081.310441 357.023796,1083.723689 360.723411,1085.522812 362.651525,1087.049356 363.995459,1088.566502 365.193503,1090.242645 366.414178,1092.330009 367.406739,1095.468380 367.455339,1098.293701 367.190332,1101.370730 366.146170,1105.143685 364.829193,1109.479021 363.841022,1112.093483 362.895154,1114.161765 361.077496,1116.727719 359.471683,1118.120620 357.781488,1119.381850 354.740183,1120.650564 352.688183,1121.207597 350.480259,1121.467621 348.670498,1121.307162 346.647157,1121.006748"/>
    <poly id="441641842" type="unknown" color="51,128,255" fill="1" layer="-1.00" shape="335.365691,1056.726585 381.266908,1073.297782 389.706125,1088.979924 374.698460,1136.145911 358.060033,1141.908953 353.127192,1143.619894 352.231769,1142.426704 320.956758,1131.375684 316.773569,1131.668087 310.173363,1134.751089 300.206918,1112.938059 316.028064,1066.354798 335.365691,1056.726585"/>
    <poly id="478647794" type="commercial" color="209,209,204" fill="1" layer="-3.00" shape="63.718943,993.857084 63.990284,995.075126 75.400647,1016.410751 83.800962,1032.126644 110.053444,1081.398817 116.762982,1094.047477 161.084385,1177.216416 162.024250,1178.575506 163.201008,1179.283976 164.285777,1179.515989 165.629351,1179.475235 169.808418,1177.458024 170.792840,1179.606188 307.916910,1113.380288 308.660580,1112.306796 309.752944,1110.724888 321.540942,1076.181422 321.060285,1074.088903 319.244351,1070.256507 321.534513,1069.104458 236.763728,907.341308 234.835208,904.568536 230.481067,905.432277 223.530184,908.945959 210.051390,915.752607 207.050055,917.298717 119.309640,961.996418 115.146186,964.113470 95.115225,974.325353 90.307087,976.768222 66.059008,989.120745 65.003071,989.889594 64.261887,991.074344 63.716392,992.510708 63.718943,993.857084"/>
    <poly id="478647795" type="commercial" color="209,209,204" fill="1" layer="-3.00" shape="252.775097,896.817985 308.494373,1015.022498 314.111789,1012.940362 329.901244,1004.992627 363.904457,989.711609 369.668050,994.269451 398.065538,1017.090263 430.398834,1042.272714 432.320155,1043.799435 440.250700,1033.888435 442.015174,1031.679764 451.015932,1019.174790 453.554217,1016.025523 459.572080,1008.682564 463.354578,1004.059367 481.418707,981.885665 496.324257,963.676092 517.460151,937.273326 520.243054,933.818279 527.970398,924.223471 530.125385,921.550025 555.798782,889.628642 569.063649,873.369286 587.706508,850.293101 585.763337,848.700034 577.929556,842.329116 563.412484,830.029399 543.562998,839.601143 537.914634,827.306951 537.216229,825.808955 553.927698,818.676281 543.913710,797.765155 552.812437,793.875326 542.831823,774.176365 533.973008,755.776948 532.078322,751.757040 529.788205,752.920110 482.954263,776.816434 479.677162,778.490835 417.590544,810.056161 410.492275,813.672957 405.737639,816.092073 402.567721,817.697405 400.882174,818.557922 396.658129,820.709441 390.755086,823.710213 254.006478,893.530492 252.539477,894.753456 252.775097,896.817985"/>
    <poly id="503352663" type="building" color="255,230,230" fill="1" layer="-1.00" shape="284.586186,1080.433624 280.139354,1082.323100 280.622190,1083.280560 284.995585,1091.930471 251.289729,1108.028957 249.678321,1105.160175 248.064373,1105.874514 246.880877,1106.401328 250.604495,1114.219834 246.549885,1116.033936 248.078622,1118.848901 291.020663,1098.496542 293.112267,1097.270959 288.583205,1088.335155 284.586186,1080.433624"/>
    <poly id="51774898" type="building" color="255,230,230" fill="1" layer="-1.00" shape="424.937289,1098.364254 490.828258,1066.737503 485.261611,1055.376285 493.575390,1051.465806 488.881511,1042.121733 485.945600,1043.554959 482.357451,1045.280713 411.002151,1079.475832 409.362248,1080.246325 407.312247,1081.203882 407.718996,1082.407833 411.837553,1090.596099 415.195618,1088.908735 419.456549,1086.901070 424.937289,1098.364254"/>
    <poly id="51774910" type="building" color="255,230,230" fill="1" layer="-1.00" shape="381.573869,1145.875846 390.748696,1164.134512 401.968644,1186.465379 403.090902,1188.710701 407.872803,1186.313224 415.321236,1182.588552 414.305679,1180.563430 411.507806,1174.994457 412.441407,1174.528818 411.723869,1173.086898 413.389665,1172.260197 415.075334,1171.410805 416.623158,1174.481332 422.238100,1171.676080 420.945620,1169.100673 422.127650,1168.507167 409.267287,1142.907473 407.991213,1143.547560 406.705995,1140.994251 401.077695,1143.810941 402.583101,1146.804505 400.870523,1147.665621 399.218294,1148.492028 398.600172,1147.248218 396.088261,1148.505259 392.118611,1140.603044 381.573869,1145.875846"/>
    <poly id="51774910#1" type="tourism" color="207,245,201" fill="1" layer="-2.00" shape="381.573869,1145.875846 390.748696,1164.134512 401.968644,1186.465379 403.090902,1188.710701 407.872803,1186.313224 415.321236,1182.588552 414.305679,1180.563430 411.507806,1174.994457 412.441407,1174.528818 411.723869,1173.086898 413.389665,1172.260197 415.075334,1171.410805 416.623158,1174.481332 422.238100,1171.676080 420.945620,1169.100673 422.127650,1168.507167 409.267287,1142.907473 407.991213,1143.547560 406.705995,1140.994251 401.077695,1143.810941 402.583101,1146.804505 400.870523,1147.665621 399.218294,1148.492028 398.600172,1147.248218 396.088261,1148.505259 392.118611,1140.603044 381.573869,1145.875846"/>
    <poly id="52566585" type="building" color="255,230,230" fill="1" layer="-1.00" shape="407.718996,1082.407833 405.003925,1083.691592 404.388244,1082.559003 391.612742,1088.604146 390.768647,1089.435028 390.276747,1090.224778 389.907748,1091.045206 386.491555,1102.125494 385.978268,1103.794789 395.813688,1107.016778 398.175807,1099.876575 397.068226,1099.533737 397.534252,1097.876610 397.695494,1098.106740 397.931883,1098.357472 398.215047,1098.573792 398.524136,1098.733904 398.859150,1098.837809 399.199727,1098.885953 399.552655,1098.878188 399.890785,1098.815111 400.220904,1098.696572 400.522652,1098.523021 400.796273,1098.305578 401.028192,1098.044542 401.211868,1097.751185 401.347300,1097.425508 401.428191,1097.089902 401.447753,1096.744519 401.413019,1096.400330 401.317202,1096.057485 401.174608,1095.749052 400.978208,1095.464057 400.734787,1095.202353 400.458655,1094.997005 400.259627,1094.901236 401.602361,1094.204043 402.099479,1095.194582 411.837553,1090.596099 407.718996,1082.407833"/>
    <poly id="528672788" type="amenity" color="237,199,199" fill="1" layer="-1.00" shape="367.031929,1165.134920 365.266536,1166.063977 368.306907,1171.850138 370.079085,1170.920933 367.031929,1165.134920"/>
    <poly id="528672796" type="amenity" color="237,199,199" fill="1" layer="-1.00" shape="292.384002,1140.050089 293.265519,1141.844462 299.143169,1138.944262 298.261898,1137.161011 292.384002,1140.050089"/>
    <poly id="563586099" type="residential" color="235,235,227" fill="1" layer="-3.00" shape="381.382502,1091.510989 380.310293,1093.392880 379.471049,1095.369792 370.107185,1125.609043 370.634636,1133.531358 418.848103,1227.777715 420.495383,1230.122767 421.912928,1230.358643 423.675562,1230.230849 424.992337,1229.589869 575.368166,1142.761201 576.252212,1144.366398 577.875612,1143.462793 578.792919,1142.563571 579.742887,1141.296423 580.114737,1139.986337 580.023116,1138.597412 579.724083,1137.658142 579.183297,1136.223445 577.873218,1133.770788 577.255409,1134.084801 575.267461,1135.085434 573.065568,1130.983242 564.870232,1115.862952 562.626378,1111.706048 557.092390,1101.512427 551.479812,1091.142498 549.349661,1087.216779 540.333400,1070.590094 537.813812,1065.938522 534.536713,1059.879275 520.346787,1033.707635 516.458875,1026.738239 516.154617,1026.488994 515.358750,1026.117022 514.405857,1026.015562 513.358734,1026.261126 495.603299,1034.674324 484.205483,1040.076920 480.570800,1041.848209 426.280646,1068.368302 425.277425,1066.287269 418.847477,1069.399756 415.548524,1070.996796 416.533100,1073.156130 411.002118,1075.770369 408.031825,1077.182144 387.171212,1087.032749 385.545379,1087.825196 383.923706,1088.806720 382.604582,1089.959627 381.382502,1091.510989"/>
    <poly id="585166550" type="residential" color="235,235,227" fill="1" layer="-3.00" shape="308.494373,1015.022498 333.687875,1064.719702 335.490419,1063.934475 337.117850,1065.990622 339.677357,1067.202814 371.396689,1077.754576 373.333037,1078.112553 375.249448,1078.181654 377.214281,1077.982630 378.951469,1077.621703 381.528413,1076.541264 414.656758,1060.400762 420.340439,1057.627384 421.817153,1056.537786 423.177933,1055.116913 428.199220,1049.086626 432.320155,1043.799435 430.398834,1042.272714 398.065538,1017.090263 369.668050,994.269451 363.904457,989.711609 329.901244,1004.992627 314.111789,1012.940362 308.494373,1015.022498"/>
    <poly id="61399924" type="leisure" color="207,245,201" fill="1" layer="-2.00" shape="430.398834,1042.272714 426.136104,1047.596408 422.364377,1052.397440 382.125557,1072.511088 355.153559,1062.923005 335.950227,1056.135086 314.111789,1012.940362 329.901244,1004.992627 363.904457,989.711609 369.668050,994.269451 398.065538,1017.090263 430.398834,1042.272714"/>
    <poly id="62234048" type="building" color="255,230,230" fill="1" layer="-1.00" shape="205.230221,1156.680944 191.111963,1128.594684 187.516571,1126.904666 184.047000,1119.525706 192.823848,1115.381944 189.630152,1110.044365 201.512415,1104.151905 203.207336,1107.419423 205.982370,1105.778147 210.322773,1113.850090 207.768024,1116.243181 196.597288,1121.452291 204.783925,1138.897852 228.648610,1127.656072 220.207566,1110.371866 225.869819,1107.865790 238.787929,1102.139762 246.824563,1119.254868 253.778547,1134.079312 229.191797,1145.526048 205.230221,1156.680944"/>
    <poly id="635484914" type="amenity" color="237,199,199" fill="1" layer="-1.00" shape="416.132978,1148.186660 425.922371,1142.529958 422.803481,1136.567450 434.600699,1129.887379 439.349044,1127.813371 429.789247,1108.717396 487.741681,1080.158370 504.162069,1109.563508 465.910736,1129.265582 469.197785,1135.157653 476.181827,1148.601916 470.654692,1152.006058 469.064759,1152.886709 472.337238,1158.734592 466.776122,1161.827917 465.333860,1159.233536 437.410852,1174.914270 433.339112,1177.184822 431.548254,1174.486844 429.894562,1175.246507 424.273585,1163.886552 416.132978,1148.186660"/>
    <poly id="692347327" type="parking" color="184,184,179" fill="1" layer="-1.00" shape="411.120115,1114.469282 421.652913,1109.575146 413.613950,1092.326296 403.074334,1097.220598 408.405053,1108.653683 411.120115,1114.469282"/>