<?xml version="1.0" encoding="UTF-8"?>
<additional>
    <!-- RSUs only near outer intersections -->
    <poi id="rsu1" x="300.0" y="1100.0" type="RSU" color="255,0,0"/>
    <poi id="rsu2" x="400.0" y="1100.0" type="RSU" color="255,0,0"/>
    <poi id="rsu3" x="500.0" y="1100.0" type="RSU" color="255,0,0"/>

    <!-- Edge Servers (all at intersections or nearby) -->
    <poi id="edge1" x="400.0" y="1180.0" type="EdgeServer" color="0,0,255"/> <!-- moved up -->
    <poi id="edge2" x="600.0" y="1000.0" type="EdgeServer" color="0,0,255"/>
    
    <poi id="edge3" x="200.0" y="850.0" type="EdgeServer" color="0,0,255"/>
    <poi id="edge4" x="100.0" y="950.0" type="EdgeServer" color="0,0,255"/>
    <poi id="edge5" x="250.0" y="1200.0" type="EdgeServer" color="0,0,255"/>
</additional>
