<?xml version="1.0" encoding="UTF-8"?>

<!-- generated on 2025-06-23 18:08:13.626671 by randomTrips.py UNKNOWN
<configuration>
    <net-file value="test.net.xml"/>
    <output-trip-file value="simulation_1000.rou.xml"/>
    <prefix value="v"/>
    <length value="True"/>
    <end value="1000.0"/>
    <period value="1.0"/>
</configuration>
-->

<routes xmlns:xsi="http://www.w3.org/2001/XMLSchema-instance" xsi:noNamespaceSchemaLocation="http://sumo.dlr.de/xsd/routes_file.xsd">
    <trip id="v0" depart="0.00" from="1057185692#0" to="-1057185692#0"/>
    <trip id="v1" depart="1.00" from="-4612756#1" to="-1124992786#0"/>
    <trip id="v2" depart="2.00" from="1057188588" to="4612756#1"/>
    <trip id="v3" depart="3.00" from="1147413312#1" to="-1057185692#0"/>
    <trip id="v4" depart="4.00" from="-4619374" to="-1057185692#0"/>
    <trip id="v5" depart="5.00" from="-4612756#1" to="1147413312#0"/>
    <trip id="v6" depart="6.00" from="-1079127198#0" to="-1079127198#1"/>
    <trip id="v7" depart="7.00" from="1057185692#0" to="1147413312#1"/>
    <trip id="v8" depart="8.00" from="-4612756#1" to="31909839#1"/>
    <trip id="v9" depart="9.00" from="1079127198#1" to="-1057131743#1"/>
    <trip id="v10" depart="10.00" from="1079127198#1" to="4612756#1"/>
    <trip id="v11" depart="11.00" from="-4612758#1" to="-1057185692#1"/>
    <trip id="v12" depart="12.00" from="53357051#0" to="-53357051#0"/>
    <trip id="v13" depart="13.00" from="-1124992786#1" to="-1057185692#0"/>
    <trip id="v14" depart="14.00" from="1147413312#0" to="4612756#1"/>
    <trip id="v15" depart="15.00" from="1079127198#1" to="4612756#1"/>
    <trip id="v16" depart="16.00" from="1057131743#1" to="53357051#1"/>
    <trip id="v17" depart="17.00" from="-4612758#1" to="1147413314"/>
    <trip id="v18" depart="18.00" from="1124992786#1" to="4612756#1"/>
    <trip id="v19" depart="19.00" from="1147413312#0" to="31909839#0"/>
    <trip id="v20" depart="20.00" from="1057188588" to="-1057185692#0"/>
    <trip id="v21" depart="21.00" from="-4612756#1" to="-1147413312#0"/>
    <trip id="v22" depart="22.00" from="-1124992786#1" to="-1124992786#1"/>
    <trip id="v23" depart="23.00" from="-1147413312#0" to="-1147413312#0"/>
    <trip id="v24" depart="24.00" from="1057185692#0" to="-53357051#0"/>
    <trip id="v25" depart="25.00" from="-4612758#1" to="-1079127198#1"/>
    <trip id="v26" depart="26.00" from="-4612756#1" to="53357051#0"/>
    <trip id="v27" depart="27.00" from="1057185692#0" to="4612756#1"/>
    <trip id="v28" depart="28.00" from="-4612756#1" to="4612756#1"/>
    <trip id="v29" depart="29.00" from="-4612756#0" to="-53357051#0"/>
    <trip id="v30" depart="30.00" from="53357051#0" to="4612756#1"/>
    <trip id="v31" depart="31.00" from="1057185692#0" to="4612756#1"/>
    <trip id="v32" depart="32.00" from="1124992786#1" to="4612758#1"/>
    <trip id="v33" depart="33.00" from="-4612756#1" to="-1057185692#0"/>
    <trip id="v34" depart="34.00" from="-4612758#1" to="-1147413312#0"/>
    <trip id="v35" depart="35.00" from="-4612756#1" to="53357051#1"/>
    <trip id="v36" depart="36.00" from="1147413312#0" to="-4612756#0"/>
    <trip id="v37" depart="37.00" from="1057185692#0" to="1057131743#1"/>
    <trip id="v38" depart="38.00" from="26247764#1" to="1124992786#0"/>
    <trip id="v39" depart="39.00" from="-4612756#1" to="-1124992786#1"/>
    <trip id="v40" depart="40.00" from="1057185692#0" to="-1147413312#0"/>
    <trip id="v41" depart="41.00" from="1057185692#0" to="53357051#0"/>
    <trip id="v42" depart="42.00" from="-4619374" to="-1124992786#0"/>
    <trip id="v43" depart="43.00" from="53357051#0" to="1147413312#0"/>
    <trip id="v44" depart="44.00" from="-1124992786#1" to="-1057185692#0"/>
    <trip id="v45" depart="45.00" from="-1147413312#0" to="4612756#1"/>
    <trip id="v46" depart="46.00" from="1079127198#1" to="1079127198#0"/>
    <trip id="v47" depart="47.00" from="-1079127198#1" to="-53357051#0"/>
    <trip id="v48" depart="48.00" from="53357051#0" to="1147413312#0"/>
    <trip id="v49" depart="49.00" from="53357051#0" to="4619374"/>
    <trip id="v50" depart="50.00" from="-1057185692#1" to="4612756#1"/>
    <trip id="v51" depart="51.00" from="1057188588" to="1147413312#0"/>
    <trip id="v52" depart="52.00" from="-4612756#1" to="4612756#1"/>
    <trip id="v53" depart="53.00" from="-1147413312#0" to="1079127198#1"/>
    <trip id="v54" depart="54.00" from="-53357051#0" to="53357051#1"/>
    <trip id="v55" depart="55.00" from="1147413312#0" to="-1147413312#0"/>
    <trip id="v56" depart="56.00" from="-53357051#1" to="-1079127198#0"/>
    <trip id="v57" depart="57.00" from="26247764#1" to="4619374"/>
    <trip id="v58" depart="58.00" from="-4612756#1" to="4612756#1"/>
    <trip id="v59" depart="59.00" from="1057185692#0" to="-1057185692#0"/>
    <trip id="v60" depart="60.00" from="1079127198#0" to="1147413312#0"/>
    <trip id="v61" depart="61.00" from="1079127198#0" to="1147413312#0"/>
    <trip id="v62" depart="62.00" from="-1057131743#0" to="-4612756#0"/>
    <trip id="v63" depart="63.00" from="-1079127198#0" to="53357051#0"/>
    <trip id="v64" depart="64.00" from="1147413312#0" to="4612758#1"/>
    <trip id="v65" depart="65.00" from="-4612756#1" to="-1057185692#0"/>
    <trip id="v66" depart="66.00" from="1147413312#0" to="53357051#1"/>
    <trip id="v67" depart="67.00" from="-1124992786#1" to="1124992786#1"/>
    <trip id="v68" depart="68.00" from="-1124992786#0" to="4612758#0"/>
    <trip id="v69" depart="69.00" from="1079127198#0" to="-1057185692#0"/>
    <trip id="v70" depart="70.00" from="-53357051#0" to="1147413314"/>
    <trip id="v71" depart="71.00" from="-4612756#1" to="4619374"/>
    <trip id="v72" depart="72.00" from="-4619374" to="-1079127198#1"/>
    <trip id="v73" depart="73.00" from="1057131743#1" to="4612756#1"/>
    <trip id="v74" depart="74.00" from="-4612756#1" to="-1147413314"/>
    <trip id="v75" depart="75.00" from="53357051#0" to="4612756#1"/>
    <trip id="v76" depart="76.00" from="-53357051#0" to="1147413312#0"/>
    <trip id="v77" depart="77.00" from="-1147413312#0" to="-1124992786#0"/>
    <trip id="v78" depart="78.00" from="-4612758#1" to="31909839#1"/>
    <trip id="v79" depart="79.00" from="-4612756#1" to="-1124992786#0"/>
    <trip id="v80" depart="80.00" from="-1124992786#0" to="4612756#1"/>
    <trip id="v81" depart="81.00" from="-4612756#1" to="53357051#0"/>
    <trip id="v82" depart="82.00" from="1147413312#0" to="-1057185692#0"/>
    <trip id="v83" depart="83.00" from="-4612756#1" to="4612756#1"/>
    <trip id="v84" depart="84.00" from="-4612756#1" to="-1057185692#0"/>
    <trip id="v85" depart="85.00" from="4612756#0" to="26247764#1"/>
    <trip id="v86" depart="86.00" from="-53357051#0" to="4612758#1"/>
    <trip id="v87" depart="87.00" from="1079127198#1" to="-1079127198#1"/>
    <trip id="v88" depart="88.00" from="-113308024#1" to="1079127198#1"/>
    <trip id="v89" depart="89.00" from="-4619374" to="1124992786#0"/>
    <trip id="v90" depart="90.00" from="1057188588" to="4612756#1"/>
    <trip id="v91" depart="91.00" from="53357051#0" to="-1057185692#0"/>
    <trip id="v92" depart="92.00" from="-4619374" to="-53357051#0"/>
    <trip id="v93" depart="93.00" from="1147413312#0" to="-1124992786#1"/>
    <trip id="v94" depart="94.00" from="-4612756#1" to="1079127198#1"/>
    <trip id="v95" depart="95.00" from="-4619374" to="-1147413312#0"/>
    <trip id="v96" depart="96.00" from="-4612756#1" to="53357051#0"/>
    <trip id="v97" depart="97.00" from="-53357051#0" to="4619374"/>
    <trip id="v98" depart="98.00" from="1057185692#0" to="-1057185692#0"/>
    <trip id="v99" depart="99.00" from="53357051#0" to="4612758#1"/>
    <trip id="v100" depart="100.00" from="53357051#0" to="53357051#0"/>
    <trip id="v101" depart="101.00" from="1147413312#0" to="-1079127198#0"/>
    <trip id="v102" depart="102.00" from="-53357051#1" to="-1079127198#1"/>
    <trip id="v103" depart="103.00" from="-4619374" to="-1057185692#0"/>
    <trip id="v104" depart="104.00" from="-4612758#1" to="53357051#1"/>
    <trip id="v105" depart="105.00" from="-4612756#1" to="4612758#1"/>
    <trip id="v106" depart="106.00" from="-53357051#0" to="1079127198#0"/>
    <trip id="v107" depart="107.00" from="53357051#0" to="53357051#1"/>
    <trip id="v108" depart="108.00" from="1057185692#0" to="4612756#1"/>
    <trip id="v109" depart="109.00" from="-1147413314" to="-1147413312#0"/>
    <trip id="v110" depart="110.00" from="53357051#0" to="31909839#0"/>
    <trip id="v111" depart="111.00" from="1057185692#0" to="4612756#1"/>
    <trip id="v112" depart="112.00" from="-1079127198#1" to="31909839#1"/>
    <trip id="v113" depart="113.00" from="-53357051#1" to="4619374"/>
    <trip id="v114" depart="114.00" from="-4612756#0" to="53357051#1"/>
    <trip id="v115" depart="115.00" from="-1124992786#1" to="-1079127198#1"/>
    <trip id="v116" depart="116.00" from="1057185692#0" to="4612756#1"/>
    <trip id="v117" depart="117.00" from="-4612756#1" to="-1057185692#0"/>
    <trip id="v118" depart="118.00" from="1147413312#1" to="-1124992786#1"/>
    <trip id="v119" depart="119.00" from="1057185692#0" to="4612756#1"/>
    <trip id="v120" depart="120.00" from="-4619374" to="31909839#1"/>
    <trip id="v121" depart="121.00" from="-53357051#1" to="53357051#0"/>
    <trip id="v122" depart="122.00" from="-4612756#1" to="4612756#1"/>
    <trip id="v123" depart="123.00" from="-4612756#1" to="1057131743#1"/>
    <trip id="v124" depart="124.00" from="1057185692#0" to="-1147413312#1"/>
    <trip id="v125" depart="125.00" from="-4612758#1" to="4612756#1"/>
    <trip id="v126" depart="126.00" from="-1124992786#0" to="1124992786#0"/>
    <trip id="v127" depart="127.00" from="53357051#0" to="53357051#1"/>
    <trip id="v128" depart="128.00" from="-1124992786#0" to="-1079127198#1"/>
    <trip id="v129" depart="129.00" from="-4612756#1" to="53357051#0"/>
    <trip id="v130" depart="130.00" from="1147413312#0" to="4619374"/>
    <trip id="v131" depart="131.00" from="-4612758#1" to="-1057185692#2"/>
    <trip id="v132" depart="132.00" from="1124992786#1" to="4612756#1"/>
    <trip id="v133" depart="133.00" from="1057185692#0" to="53357051#1"/>
    <trip id="v134" depart="134.00" from="1057185692#0" to="-1057131743#1"/>
    <trip id="v135" depart="135.00" from="1124992786#0" to="-1147413312#1"/>
    <trip id="v136" depart="136.00" from="1057185692#0" to="53357051#0"/>
    <trip id="v137" depart="137.00" from="-1147413312#0" to="-1057185692#0"/>
    <trip id="v138" depart="138.00" from="-1147413312#0" to="1147413314"/>
    <trip id="v139" depart="139.00" from="-4612756#1" to="4612756#1"/>
    <trip id="v140" depart="140.00" from="1057188588" to="-1079127198#1"/>
    <trip id="v141" depart="141.00" from="1057185692#0" to="-1147413312#0"/>
    <trip id="v142" depart="142.00" from="-53357051#1" to="53357051#0"/>
    <trip id="v143" depart="143.00" from="1147413312#0" to="-1057185692#0"/>
    <trip id="v144" depart="144.00" from="-4619374" to="-1147413312#0"/>
    <trip id="v145" depart="145.00" from="-1057131743#1" to="4612758#1"/>
    <trip id="v146" depart="146.00" from="1057185692#0" to="-1147413312#0"/>
    <trip id="v147" depart="147.00" from="1057188588" to="1147413314"/>
    <trip id="v148" depart="148.00" from="-53357051#0" to="-1057131743#1"/>
    <trip id="v149" depart="149.00" from="-1124992786#0" to="4619374"/>
    <trip id="v150" depart="150.00" from="26247764#0" to="1147413312#1"/>
    <trip id="v151" depart="151.00" from="1124992786#1" to="31909839#1"/>
    <trip id="v152" depart="152.00" from="-1147413314" to="-1057185692#0"/>
    <trip id="v153" depart="153.00" from="-4612756#1" to="53357051#0"/>
    <trip id="v154" depart="154.00" from="1079127198#1" to="4619374"/>
    <trip id="v155" depart="155.00" from="1147413314" to="-1079127198#1"/>
    <trip id="v156" depart="156.00" from="-4612756#1" to="-1057185692#0"/>
    <trip id="v157" depart="157.00" from="1079127198#0" to="4619374"/>
    <trip id="v158" depart="158.00" from="-4619374" to="4612756#1"/>
    <trip id="v159" depart="159.00" from="-1147413314" to="53357051#0"/>
    <trip id="v160" depart="160.00" from="1147413312#0" to="53357051#1"/>
    <trip id="v161" depart="161.00" from="1079127198#1" to="4619374"/>
    <trip id="v162" depart="162.00" from="-1079127198#0" to="4612756#1"/>
    <trip id="v163" depart="163.00" from="-4612758#1" to="53357051#0"/>
    <trip id="v164" depart="164.00" from="1079127198#1" to="4619374"/>
    <trip id="v165" depart="165.00" from="1079127198#1" to="-1147413312#0"/>
    <trip id="v166" depart="166.00" from="1079127198#1" to="-1057185692#0"/>
    <trip id="v167" depart="167.00" from="1147413312#0" to="4619374"/>
    <trip id="v168" depart="168.00" from="-4612756#1" to="4612758#1"/>
    <trip id="v169" depart="169.00" from="-53357051#0" to="-1147413314"/>
    <trip id="v170" depart="170.00" from="1079127198#1" to="-1124992786#0"/>
    <trip id="v171" depart="171.00" from="-1079127198#0" to="-1079127198#1"/>
    <trip id="v172" depart="172.00" from="-4612758#1" to="4619374"/>
    <trip id="v173" depart="173.00" from="53357051#0" to="-1147413312#0"/>
    <trip id="v174" depart="174.00" from="1057185692#0" to="1057185692#1"/>
    <trip id="v175" depart="175.00" from="53357051#0" to="1147413312#0"/>
    <trip id="v176" depart="176.00" from="4612756#0" to="-1057185692#0"/>
    <trip id="v177" depart="177.00" from="53357051#0" to="-1079127198#0"/>
    <trip id="v178" depart="178.00" from="53357051#0" to="-1147413312#0"/>
    <trip id="v179" depart="179.00" from="-1147413312#0" to="1079127198#1"/>
    <trip id="v180" depart="180.00" from="1057188588" to="-1147597431#0"/>
    <trip id="v181" depart="181.00" from="1057185692#0" to="1147413312#0"/>
    <trip id="v182" depart="182.00" from="-4612758#1" to="31909839#0"/>
    <trip id="v183" depart="183.00" from="-4612756#1" to="4612756#1"/>
    <trip id="v184" depart="184.00" from="-1057131743#0" to="53357051#0"/>
    <trip id="v185" depart="185.00" from="1057131743#1" to="4612756#1"/>
    <trip id="v186" depart="186.00" from="1057188588" to="4612756#1"/>
    <trip id="v187" depart="187.00" from="-4612758#1" to="-1057185692#0"/>
    <trip id="v188" depart="188.00" from="1057185692#0" to="-4612758#0"/>
    <trip id="v189" depart="189.00" from="-4612758#0" to="4619374"/>
    <trip id="v190" depart="190.00" from="1057188588" to="-1147413312#1"/>
    <trip id="v191" depart="191.00" from="-4612758#0" to="1079127198#0"/>
    <trip id="v192" depart="192.00" from="-4619374" to="-1147413312#0"/>
    <trip id="v193" depart="193.00" from="-1147413312#0" to="1079127198#0"/>
    <trip id="v194" depart="194.00" from="4612756#0" to="4612756#1"/>
    <trip id="v195" depart="195.00" from="26247764#0" to="4612756#1"/>
    <trip id="v196" depart="196.00" from="-4612756#1" to="1147413314"/>
    <trip id="v197" depart="197.00" from="-1057131743#0" to="-1147413312#0"/>
    <trip id="v198" depart="198.00" from="-53357051#0" to="31909839#0"/>
    <trip id="v199" depart="199.00" from="1057185692#0" to="1124992786#0"/>
    <trip id="v200" depart="200.00" from="-53357051#0" to="-1079127198#1"/>
    <trip id="v201" depart="201.00" from="-53357051#0" to="53357051#0"/>
    <trip id="v202" depart="202.00" from="1079127198#1" to="-1079127198#0"/>
    <trip id="v203" depart="203.00" from="-1124992786#1" to="1147413312#0"/>
    <trip id="v204" depart="204.00" from="1057185692#0" to="-53357051#0"/>
    <trip id="v205" depart="205.00" from="1124992786#0" to="4612756#1"/>
    <trip id="v206" depart="206.00" from="1057185692#1" to="-1124992786#0"/>
    <trip id="v207" depart="207.00" from="-4612756#1" to="-1057185692#0"/>
    <trip id="v208" depart="208.00" from="-4612756#1" to="1124992786#1"/>
    <trip id="v209" depart="209.00" from="1147413312#0" to="-1057185692#0"/>
    <trip id="v210" depart="210.00" from="-4619374" to="4612756#1"/>
    <trip id="v211" depart="211.00" from="-4612756#1" to="4612756#1"/>
    <trip id="v212" depart="212.00" from="-53357051#1" to="-1124992786#1"/>
    <trip id="v213" depart="213.00" from="1057185692#0" to="-1057131743#1"/>
    <trip id="v214" depart="214.00" from="1057188588" to="4612758#1"/>
    <trip id="v215" depart="215.00" from="-1147413312#0" to="1079127198#0"/>
    <trip id="v216" depart="216.00" from="-4612756#1" to="53357051#1"/>
    <trip id="v217" depart="217.00" from="-53357051#1" to="-1057185692#0"/>
    <trip id="v218" depart="218.00" from="-4612756#1" to="4619374"/>
    <trip id="v219" depart="219.00" from="-53357051#0" to="4612758#1"/>
    <trip id="v220" depart="220.00" from="1057185692#0" to="53357051#1"/>
    <trip id="v221" depart="221.00" from="1057185692#0" to="53357051#1"/>
    <trip id="v222" depart="222.00" from="1147413312#1" to="4612756#1"/>
    <trip id="v223" depart="223.00" from="1057188588" to="1147413312#0"/>
    <trip id="v224" depart="224.00" from="1124992786#1" to="1147413314"/>
    <trip id="v225" depart="225.00" from="1147413314" to="4612756#1"/>
    <trip id="v226" depart="226.00" from="-53357051#0" to="-1147413312#0"/>
    <trip id="v227" depart="227.00" from="-4612756#1" to="4612756#1"/>
    <trip id="v228" depart="228.00" from="1079127198#0" to="1147413312#0"/>
    <trip id="v229" depart="229.00" from="1057185692#0" to="-1147413312#0"/>
    <trip id="v230" depart="230.00" from="-1124992786#0" to="-1147413312#0"/>
    <trip id="v231" depart="231.00" from="-4612756#1" to="-4612756#0"/>
    <trip id="v232" depart="232.00" from="1057131743#1" to="-1057185692#0"/>
    <trip id="v233" depart="233.00" from="-4612756#1" to="4612756#1"/>
    <trip id="v234" depart="234.00" from="1057188588" to="-1057185692#0"/>
    <trip id="v235" depart="235.00" from="-4619374" to="1147413312#1"/>
    <trip id="v236" depart="236.00" from="-4619374" to="-1079127198#1"/>
    <trip id="v237" depart="237.00" from="-4619374" to="53357051#0"/>
    <trip id="v238" depart="238.00" from="1057185692#0" to="4612756#1"/>
    <trip id="v239" depart="239.00" from="1147413312#0" to="4612758#1"/>
    <trip id="v240" depart="240.00" from="-4612758#1" to="-1057131743#1"/>
    <trip id="v241" depart="241.00" from="-4612758#1" to="4612756#1"/>
    <trip id="v242" depart="242.00" from="1147413312#0" to="53357051#1"/>
    <trip id="v243" depart="243.00" from="-4619374" to="4612756#1"/>
    <trip id="v244" depart="244.00" from="1057185692#0" to="4612756#0"/>
    <trip id="v245" depart="245.00" from="-4612756#1" to="-1124992786#0"/>
    <trip id="v246" depart="246.00" from="-53357051#0" to="-1057185692#0"/>
    <trip id="v247" depart="247.00" from="-4612758#1" to="4612756#1"/>
    <trip id="v248" depart="248.00" from="-4619374" to="-1079127198#0"/>
    <trip id="v249" depart="249.00" from="-53357051#0" to="-1057185692#0"/>
    <trip id="v250" depart="250.00" from="1057185692#0" to="-1057185692#0"/>
    <trip id="v251" depart="251.00" from="-4619374" to="26247764#0"/>
    <trip id="v252" depart="252.00" from="-1079127198#0" to="4612756#1"/>
    <trip id="v253" depart="253.00" from="-1147413312#0" to="1124992786#0"/>
    <trip id="v254" depart="254.00" from="-1079127198#1" to="-53357051#0"/>
    <trip id="v255" depart="255.00" from="-4612756#1" to="-4612756#0"/>
    <trip id="v256" depart="256.00" from="1057188588" to="-53357051#0"/>
    <trip id="v257" depart="257.00" from="1057188588" to="4612758#1"/>
    <trip id="v258" depart="258.00" from="-4612756#1" to="-1057185692#0"/>
    <trip id="v259" depart="259.00" from="-1079127198#0" to="1147413312#0"/>
    <trip id="v260" depart="260.00" from="53357051#0" to="-53357051#0"/>
    <trip id="v261" depart="261.00" from="1057185692#0" to="4612758#1"/>
    <trip id="v262" depart="262.00" from="1057185692#0" to="4612756#1"/>
    <trip id="v263" depart="263.00" from="4612758#0" to="-1079127198#1"/>
    <trip id="v264" depart="264.00" from="-1079127198#0" to="-1057185692#0"/>
    <trip id="v265" depart="265.00" from="-1147413312#0" to="4612756#1"/>
    <trip id="v266" depart="266.00" from="1057185692#0" to="-1124992786#0"/>
    <trip id="v267" depart="267.00" from="1057188588" to="4612758#1"/>
    <trip id="v268" depart="268.00" from="-4612756#0" to="4612756#1"/>
    <trip id="v269" depart="269.00" from="1057188588" to="-1057185692#0"/>
    <trip id="v270" depart="270.00" from="1124992786#0" to="53357051#1"/>
    <trip id="v271" depart="271.00" from="-1147413312#0" to="-1057185692#0"/>
    <trip id="v272" depart="272.00" from="-4612758#0" to="4612756#1"/>
    <trip id="v273" depart="273.00" from="53357051#0" to="1057131743#1"/>
    <trip id="v274" depart="274.00" from="1057188588" to="-1057185692#0"/>
    <trip id="v275" depart="275.00" from="1057188588" to="4612756#1"/>
    <trip id="v276" depart="276.00" from="-1147413312#0" to="4612758#1"/>
    <trip id="v277" depart="277.00" from="1147413312#0" to="4612756#0"/>
    <trip id="v278" depart="278.00" from="-1147413312#0" to="53357051#1"/>
    <trip id="v279" depart="279.00" from="1079127198#0" to="-53357051#0"/>
    <trip id="v280" depart="280.00" from="-53357051#0" to="-53357051#0"/>
    <trip id="v281" depart="281.00" from="-53357051#1" to="-53357051#0"/>
    <trip id="v282" depart="282.00" from="1147413312#0" to="4612758#1"/>
    <trip id="v283" depart="283.00" from="-1147413312#0" to="53357051#1"/>
    <trip id="v284" depart="284.00" from="1057185692#0" to="4612758#1"/>
    <trip id="v285" depart="285.00" from="1057188588" to="1079127198#1"/>
    <trip id="v286" depart="286.00" from="1057188588" to="53357051#1"/>
    <trip id="v287" depart="287.00" from="-4612756#1" to="4612758#1"/>
    <trip id="v288" depart="288.00" from="1057131743#1" to="1124992786#1"/>
    <trip id="v289" depart="289.00" from="-53357051#0" to="4612756#1"/>
    <trip id="v290" depart="290.00" from="-4612756#1" to="4619374"/>
    <trip id="v291" depart="291.00" from="1124992786#1" to="-1057185692#0"/>
    <trip id="v292" depart="292.00" from="1147413312#0" to="-1124992786#1"/>
    <trip id="v293" depart="293.00" from="-53357051#0" to="4612756#1"/>
    <trip id="v294" depart="294.00" from="-4612758#1" to="-1057185692#0"/>
    <trip id="v295" depart="295.00" from="1147413312#0" to="-1079127198#0"/>
    <trip id="v296" depart="296.00" from="-4612756#1" to="4612758#1"/>
    <trip id="v297" depart="297.00" from="-4612758#1" to="4619374"/>
    <trip id="v298" depart="298.00" from="1057188588" to="-1147413312#0"/>
    <trip id="v299" depart="299.00" from="-1057131743#1" to="53357051#1"/>
    <trip id="v300" depart="300.00" from="-1124992786#1" to="4612756#1"/>
    <trip id="v301" depart="301.00" from="-53357051#1" to="4612758#0"/>
    <trip id="v302" depart="302.00" from="1057188588" to="4612756#1"/>
    <trip id="v303" depart="303.00" from="-53357051#1" to="4612758#1"/>
    <trip id="v304" depart="304.00" from="-1124992786#1" to="-1124992786#0"/>
    <trip id="v305" depart="305.00" from="1057188588" to="-1147413314"/>
    <trip id="v306" depart="306.00" from="1057185692#0" to="1124992786#1"/>
    <trip id="v307" depart="307.00" from="1057131743#0" to="1079127198#0"/>
    <trip id="v308" depart="308.00" from="1057188588" to="-4612758#0"/>
    <trip id="v309" depart="309.00" from="1057188588" to="-1147413312#0"/>
    <trip id="v310" depart="310.00" from="-4612756#1" to="-1057185692#0"/>
    <trip id="v311" depart="311.00" from="-4612756#1" to="-1057185692#0"/>
    <trip id="v312" depart="312.00" from="1057131743#1" to="4612758#0"/>
    <trip id="v313" depart="313.00" from="-4612756#1" to="-1124992786#0"/>
    <trip id="v314" depart="314.00" from="-53357051#1" to="4612756#1"/>
    <trip id="v315" depart="315.00" from="53357051#0" to="1147413312#0"/>
    <trip id="v316" depart="316.00" from="-4612756#1" to="-1057185692#0"/>
    <trip id="v317" depart="317.00" from="-4612756#1" to="-1124992786#0"/>
    <trip id="v318" depart="318.00" from="-4612756#1" to="-1057185692#0"/>
    <trip id="v319" depart="319.00" from="1057131743#1" to="-1147413312#0"/>
    <trip id="v320" depart="320.00" from="53357051#0" to="1147413314"/>
    <trip id="v321" depart="321.00" from="1057188588" to="-1057185692#0"/>
    <trip id="v322" depart="322.00" from="1147413312#0" to="1124992786#1"/>
    <trip id="v323" depart="323.00" from="1147413312#0" to="31909839#0"/>
    <trip id="v324" depart="324.00" from="-53357051#0" to="1079127198#1"/>
    <trip id="v325" depart="325.00" from="-4612756#1" to="-1057185692#0"/>
    <trip id="v326" depart="326.00" from="4612756#0" to="1124992786#1"/>
    <trip id="v327" depart="327.00" from="1124992786#0" to="1057185692#1"/>
    <trip id="v328" depart="328.00" from="-1124992786#0" to="4612756#1"/>
    <trip id="v329" depart="329.00" from="-1079127198#1" to="-1057185692#0"/>
    <trip id="v330" depart="330.00" from="1057185692#0" to="-1147413312#1"/>
    <trip id="v331" depart="331.00" from="53357051#0" to="-1057185692#0"/>
    <trip id="v332" depart="332.00" from="1079127198#0" to="4612756#1"/>
    <trip id="v333" depart="333.00" from="1079127198#1" to="-1124992786#0"/>
    <trip id="v334" depart="334.00" from="-53357051#1" to="1079127198#1"/>
    <trip id="v335" depart="335.00" from="-53357051#0" to="4619374"/>
    <trip id="v336" depart="336.00" from="53357051#0" to="-1147413314"/>
    <trip id="v337" depart="337.00" from="1057185692#0" to="4612756#1"/>
    <trip id="v338" depart="338.00" from="1057188588" to="53357051#1"/>
    <trip id="v339" depart="339.00" from="-4612756#1" to="-1079127198#1"/>
    <trip id="v340" depart="340.00" from="1057185692#0" to="-1057185692#1"/>
    <trip id="v341" depart="341.00" from="-4612756#1" to="-1057185692#0"/>
    <trip id="v342" depart="342.00" from="-1057131743#1" to="1079127198#1"/>
    <trip id="v343" depart="343.00" from="1057185692#0" to="-1147413312#0"/>
    <trip id="v344" depart="344.00" from="-4612756#1" to="4612756#1"/>
    <trip id="v345" depart="345.00" from="1057188588" to="1079127198#1"/>
    <trip id="v346" depart="346.00" from="1057188588" to="53357051#0"/>
    <trip id="v347" depart="347.00" from="1079127198#1" to="4612756#1"/>
    <trip id="v348" depart="348.00" from="1057185692#0" to="53357051#0"/>
    <trip id="v349" depart="349.00" from="-4619374" to="1147413312#1"/>
    <trip id="v350" depart="350.00" from="1057185692#0" to="53357051#0"/>
    <trip id="v351" depart="351.00" from="1124992786#1" to="-1057185692#0"/>
    <trip id="v352" depart="352.00" from="-4612756#0" to="-1147413314"/>
    <trip id="v353" depart="353.00" from="1057188588" to="26247764#1"/>
    <trip id="v354" depart="354.00" from="-4612756#1" to="-1057185692#0"/>
    <trip id="v355" depart="355.00" from="1057188588" to="4612756#1"/>
    <trip id="v356" depart="356.00" from="4612756#0" to="1147413312#0"/>
    <trip id="v357" depart="357.00" from="-53357051#1" to="-1057185692#0"/>
    <trip id="v358" depart="358.00" from="-1079127198#1" to="1079127198#1"/>
    <trip id="v359" depart="359.00" from="-4612758#1" to="-1147413312#0"/>
    <trip id="v360" depart="360.00" from="-1124992786#1" to="53357051#1"/>
    <trip id="v361" depart="361.00" from="1124992786#1" to="31909839#0"/>
    <trip id="v362" depart="362.00" from="53357051#0" to="53357051#1"/>
    <trip id="v363" depart="363.00" from="1057185692#0" to="-1147413312#0"/>
    <trip id="v364" depart="364.00" from="-1079127198#1" to="4612756#1"/>
    <trip id="v365" depart="365.00" from="-53357051#0" to="4612756#1"/>
    <trip id="v366" depart="366.00" from="26247764#1" to="-1079127198#0"/>
    <trip id="v367" depart="367.00" from="1057185692#0" to="4612756#1"/>
    <trip id="v368" depart="368.00" from="-53357051#1" to="-1057185692#0"/>
    <trip id="v369" depart="369.00" from="-4612758#1" to="-53357051#0"/>
    <trip id="v370" depart="370.00" from="1057185692#0" to="4619374"/>
    <trip id="v371" depart="371.00" from="-4612758#1" to="4612756#1"/>
    <trip id="v372" depart="372.00" from="-4612756#1" to="53357051#1"/>
    <trip id="v373" depart="373.00" from="1124992786#0" to="1147413314"/>
    <trip id="v374" depart="374.00" from="-53357051#0" to="-4612756#0"/>
    <trip id="v375" depart="375.00" from="-4612758#1" to="53357051#1"/>
    <trip id="v376" depart="376.00" from="-4619374" to="1147413312#0"/>
    <trip id="v377" depart="377.00" from="53357051#0" to="4612756#1"/>
    <trip id="v378" depart="378.00" from="1057185692#0" to="1079127198#0"/>
    <trip id="v379" depart="379.00" from="-4612756#1" to="-53357051#0"/>
    <trip id="v380" depart="380.00" from="1057188588" to="4612756#1"/>
    <trip id="v381" depart="381.00" from="1057188588" to="-1079127198#1"/>
    <trip id="v382" depart="382.00" from="1057185692#0" to="53357051#0"/>
    <trip id="v383" depart="383.00" from="-53357051#0" to="4612756#1"/>
    <trip id="v384" depart="384.00" from="-1147413312#0" to="53357051#1"/>
    <trip id="v385" depart="385.00" from="1057185692#0" to="-1124992786#1"/>
    <trip id="v386" depart="386.00" from="-4612756#0" to="1147413314"/>
    <trip id="v387" depart="387.00" from="1057185692#0" to="-1057185692#0"/>
    <trip id="v388" depart="388.00" from="53357051#0" to="53357051#0"/>
    <trip id="v389" depart="389.00" from="-53357051#0" to="-1057185692#0"/>
    <trip id="v390" depart="390.00" from="1124992786#1" to="1147413312#0"/>
    <trip id="v391" depart="391.00" from="1057188588" to="1147413312#0"/>
    <trip id="v392" depart="392.00" from="-4612756#1" to="4612758#1"/>
    <trip id="v393" depart="393.00" from="53357051#0" to="-1124992786#1"/>
    <trip id="v394" depart="394.00" from="1057185692#0" to="-53357051#0"/>
    <trip id="v395" depart="395.00" from="31909839#0" to="1147413312#0"/>
    <trip id="v396" depart="396.00" from="1147413312#0" to="4619374"/>
    <trip id="v397" depart="397.00" from="-4612756#1" to="4612758#1"/>
    <trip id="v398" depart="398.00" from="-4619374" to="53357051#0"/>
    <trip id="v399" depart="399.00" from="-53357051#1" to="4612758#1"/>
    <trip id="v400" depart="400.00" from="-4612756#1" to="-1147413312#1"/>
    <trip id="v401" depart="401.00" from="1057185692#0" to="53357051#1"/>