<configuration>
    <input>
        <net-file value="test.net.xml"/>
        <route-files value="simulation_100.rou.xml"/>
	<additional-files value="rsu_edge.add100.xml"/>

    </input>
    <time>
        <begin value="0"/>
        <end value="100"/>
    </time>
</configuration>