<?xml version="1.0" encoding="UTF-8"?>

<!-- generated on 2025-06-20 12:15:23.746829 by randomTrips.py v1_23_1+0000-676720d13f6
<configuration>
    <net-file value="test.net.xml"/>
    <route-file value="map.rou.xml"/>
    <validate value="True"/>
    <end value="100.0"/>
    <period value="2.0"/>
</configuration>
-->

<!-- generated on 2025-06-20 12:15:23 by Eclipse SUMO duarouter Version 1.23.1
<duarouterConfiguration xmlns:xsi="http://www.w3.org/2001/XMLSchema-instance" xsi:noNamespaceSchemaLocation="http://sumo.dlr.de/xsd/duarouterConfiguration.xsd">

    <input>
        <net-file value="test.net.xml"/>
        <route-files value="trips.trips.xml"/>
    </input>

    <output>
        <output-file value="map.rou.xml"/>
        <alternatives-output value="NUL"/>
    </output>

    <time>
        <begin value="0"/>
        <end value="100.0"/>
    </time>

    <report>
        <no-warnings value="true"/>
        <ignore-errors value="true"/>
        <no-step-log value="true"/>
    </report>

</duarouterConfiguration>
-->

<routes xmlns:xsi="http://www.w3.org/2001/XMLSchema-instance" xsi:noNamespaceSchemaLocation="http://sumo.dlr.de/xsd/routes_file.xsd">
    <vehicle id="0" depart="0.00">
        <route edges="1079127198#1 53357051#0 53357051#1 -53357051#1 -53357051#0 -1079127198#1 -1079127198#0 181462420#3 1124992786#0 1124992786#1 1057131743#0 1057131743#1 1057131743#2 -1057131743#2 -1057131743#1"/>
    </vehicle>
    <vehicle id="1" depart="2.00">
        <route edges="-1147413314 1147597430 1147597431#0 1147597431#1 1147597431#2 -113308024#1 -113308024#0"/>
    </vehicle>
    <vehicle id="2" depart="4.00">
        <route edges="1147413312#0 1147413312#1"/>
    </vehicle>
    <vehicle id="3" depart="6.00">
        <route edges="31909839#0 31909839#1 181462420#1 -1147413312#1 -1147413312#0 -1057185692#4 -1057185692#3 -1057185692#2 -1057185692#1"/>
    </vehicle>
    <vehicle id="4" depart="8.00">
        <route edges="-4619374 31909839#0 31909839#1 181462420#1 181462420#2 181462420#3 1124992786#0 1124992786#1 1057131743#0 1057131743#1 1057131743#2 -1057131743#2 -1057131743#1"/>
    </vehicle>
    <vehicle id="5" depart="10.00">
        <route edges="-113308024#1 -113308024#0 -4612758#0 -1147413314 -1057131743#2 -1057131743#1 -1057131743#0 -1124992786#1 -1124992786#0 181462420#4 181462420#0 181462420#1 -1147413312#1 -1147413312#0 -1057185692#4 -1057185692#3 -1057185692#2 -1057185692#1 -1057185692#0 1057185692#0 1057185692#1 1057185692#2"/>
    </vehicle>
    <vehicle id="6" depart="12.00">
        <route edges="-1057131743#1 -1057131743#0 -1124992786#1"/>
    </vehicle>
    <vehicle id="7" depart="14.00">
        <route edges="1079127198#1 53357051#0 53357051#1 -53357051#1 -53357051#0 -1079127198#1 -1079127198#0 181462420#3 181462420#4 181462420#0 181462420#1 181462420#2 1079127198#0"/>
    </vehicle>
    <vehicle id="8" depart="16.00">
        <route edges="-113308024#1 -113308024#0 -4612758#0 -1147413314 -1057131743#2 -1057131743#1 -1057131743#0 -1124992786#1 -1124992786#0 181462420#4 181462420#0 181462420#1 181462420#2 181462420#3 1124992786#0"/>
    </vehicle>
    <vehicle id="9" depart="18.00">
        <route edges="1147597431#0 1147597431#1 1147597431#2 -113308024#1 -113308024#0 -4612758#0 -1147413314 -1057131743#2 -1057131743#1 -1057131743#0"/>
    </vehicle>
    <vehicle id="10" depart="20.00">
        <route edges="1147597431#0 1147597431#1 1147597431#2 -1147597431#2 -1147597431#1 -1147597431#0 -1147597430 1147413314"/>
    </vehicle>
    <vehicle id="11" depart="22.00">
        <route edges="-1147597431#2 -1147597431#1 -1147597431#0 -1147597430 -1057131743#2 -1057131743#1 -1057131743#0 -1124992786#1 -1124992786#0 181462420#4 181462420#0 181462420#1 181462420#2 1079127198#0 1079127198#1 53357051#0 53357051#1 -53357051#1 -53357051#0 -1079127198#1 -1079127198#0"/>
    </vehicle>
    <vehicle id="12" depart="24.00">
        <route edges="4612756#0 4612756#1 -4612756#1 -4612756#0 -1147597431#2 -1147597431#1"/>
    </vehicle>
    <vehicle id="13" depart="26.00">
        <route edges="-1057185692#3 -1057185692#2"/>
    </vehicle>
    <vehicle id="14" depart="28.00">
        <route edges="26247764#0 26247764#1 4619374 -4619374 31909839#0 31909839#1 181462420#1 181462420#2 181462420#3 1124992786#0 1124992786#1"/>
    </vehicle>
    <vehicle id="15" depart="30.00">
        <route edges="1147597431#0"/>
    </vehicle>
    <vehicle id="16" depart="32.00">
        <route edges="1057185692#1 1057185692#2 1057185692#3 1057185692#4 1147413312#0 1147413312#1 181462420#2 1079127198#0 1079127198#1 53357051#0"/>
    </vehicle>
    <vehicle id="17" depart="34.00">
        <route edges="-4612756#1 -4612756#0 -1147597431#2 -1147597431#1 -1147597431#0 -1147597430 -1057131743#2 -1057131743#1 -1057131743#0 -1124992786#1 -1124992786#0 181462420#4 181462420#0 181462420#1 181462420#2 1079127198#0"/>
    </vehicle>
    <vehicle id="18" depart="36.00">
        <route edges="1147597431#2 -113308024#1 -113308024#0 113308024#0"/>
    </vehicle>
    <vehicle id="19" depart="38.00">
        <route edges="26247764#0 26247764#1 4619374 -4619374 31909839#0 31909839#1 181462420#1 181462420#2 1079127198#0 1079127198#1"/>
    </vehicle>
    <vehicle id="20" depart="40.00">
        <route edges="113308024#0 113308024#1 -1147597431#2 -1147597431#1 -1147597431#0 -1147597430 -1057131743#2"/>
    </vehicle>
    <vehicle id="21" depart="42.00">
        <route edges="-1147413312#0 1147413312#0 1147413312#1 181462420#2 181462420#3 1124992786#0 1124992786#1 1057131743#0 1057131743#1 1057131743#2 1147597430 1147597431#0 1147597431#1 1147597431#2 -113308024#1 -113308024#0 -4612758#0 -1147413314"/>
    </vehicle>
    <vehicle id="22" depart="44.00">
        <route edges="-1057185692#2 -1057185692#1 -1057185692#0 1057185692#0 1057185692#1 1057185692#2 1057185692#3 1057185692#4 1147413312#0 1147413312#1 181462420#2 181462420#3 1124992786#0 1124992786#1 1057131743#0 1057131743#1 1057131743#2 1147597430 1147597431#0 1147597431#1 1147597431#2 -113308024#1"/>
    </vehicle>
    <vehicle id="23" depart="46.00">
        <route edges="-1057185692#3 -1057185692#2 -1057185692#1 -1057185692#0 1057185692#0 1057185692#1 1057185692#2 1057185692#3 1057185692#4 1147413312#0 1147413312#1 181462420#2 181462420#3 181462420#4 181462420#0 181462420#1 -1147413312#1"/>
    </vehicle>
    <vehicle id="24" depart="48.00">
        <route edges="1079127198#0 1079127198#1 53357051#0 53357051#1 -53357051#1 -53357051#0 -1079127198#1 -1079127198#0 181462420#3 1124992786#0 1124992786#1 1057131743#0 1057131743#1 1057131743#2 1147413314 4612758#0 113308024#0 113308024#1 -1147597431#2"/>
    </vehicle>
    <vehicle id="25" depart="50.00">
        <route edges="-4612756#1 -4612756#0 -1147597431#2 -1147597431#1 -1147597431#0 -1147597430 -1057131743#2 -1057131743#1 -1057131743#0 -1124992786#1"/>
    </vehicle>
    <vehicle id="26" depart="52.00">
        <route edges="-1147413314 1147413314 4612758#0 4612758#1"/>
    </vehicle>
    <vehicle id="27" depart="54.00">
        <route edges="1079127198#1 53357051#0 53357051#1 -53357051#1 -53357051#0 -1079127198#1 -1079127198#0 181462420#3 1124992786#0 1124992786#1"/>
    </vehicle>
    <vehicle id="28" depart="56.00">
        <route edges="-1124992786#0 181462420#4 181462420#0 181462420#1 181462420#2 181462420#3 1124992786#0 1124992786#1 1057131743#0 1057131743#1 1057131743#2 1147597430 1147597431#0"/>
    </vehicle>
    <vehicle id="29" depart="58.00">
        <route edges="-1124992786#0 181462420#4 181462420#0 181462420#1 181462420#2 181462420#3 1124992786#0 1124992786#1 1057131743#0 1057131743#1 1057131743#2 1147597430 1147597431#0 1147597431#1 1147597431#2 4612756#0 4612756#1 -4612756#1 -4612756#0"/>
    </vehicle>
    <vehicle id="30" depart="60.00">
        <route edges="53357051#0 53357051#1 -53357051#1 -53357051#0 -1079127198#1 -1079127198#0 181462420#3 1124992786#0 1124992786#1 1057131743#0 1057131743#1 1057131743#2 1147413314 4612758#0 113308024#0 113308024#1"/>
    </vehicle>
    <vehicle id="31" depart="62.00">
        <route edges="1057185692#2 1057185692#3 1057185692#4 1147413312#0 1147413312#1 181462420#2 181462420#3 1124992786#0 1124992786#1 1057131743#0 1057131743#1 1057131743#2 1147413314"/>
    </vehicle>
    <vehicle id="32" depart="64.00">
        <route edges="1147597431#2 -113308024#1 -113308024#0 -4612758#0 -1147413314 -1057131743#2 -1057131743#1 -1057131743#0 -1124992786#1 -1124992786#0 181462420#4 26247764#0"/>
    </vehicle>
    <vehicle id="33" depart="66.00">
        <route edges="-1147413312#0 1147413312#0 1147413312#1 181462420#2 181462420#3 1124992786#0 1124992786#1 1057131743#0 1057131743#1 1057131743#2 -1057131743#2 -1057131743#1"/>
    </vehicle>
    <vehicle id="34" depart="68.00">
        <route edges="-1147597431#1 -1147597431#0 -1147597430 -1057131743#2 -1057131743#1 -1057131743#0 -1124992786#1 -1124992786#0 181462420#4 181462420#0 181462420#1 -1147413312#1"/>
    </vehicle>
    <vehicle id="35" depart="70.00">
        <route edges="-113308024#1 -113308024#0 4612758#1"/>
    </vehicle>
    <vehicle id="36" depart="72.00">
        <route edges="26247764#1 4619374 -4619374 31909839#0 31909839#1 181462420#1 181462420#2 181462420#3 1124992786#0 1124992786#1 1057131743#0 1057131743#1 1057131743#2 1147413314 4612758#0 113308024#0 113308024#1 -1147597431#2 -1147597431#1 -1147597431#0 -1147597430"/>
    </vehicle>
    <vehicle id="37" depart="74.00">
        <route edges="1124992786#0 1124992786#1 1057131743#0 1057131743#1 1057131743#2 1147597430 1147597431#0 1147597431#1 1147597431#2 -113308024#1 -113308024#0 -4612758#0"/>
    </vehicle>
    <vehicle id="38" depart="76.00">
        <route edges="4612406#0 4612406#1 1147413312#0 1147413312#1 181462420#2 181462420#3 1124992786#0 1124992786#1 1057131743#0 1057131743#1 1057131743#2"/>
    </vehicle>
    <vehicle id="39" depart="78.00">
        <route edges="-1147413314 -1057131743#2 -1057131743#1 -1057131743#0 -1124992786#1 -1124992786#0 181462420#4 181462420#0 181462420#1 -1147413312#1 -1147413312#0"/>
    </vehicle>
    <vehicle id="40" depart="80.00">
        <route edges="1057185692#2 1057185692#3 1057185692#4 1147413312#0 1147413312#1 181462420#2 181462420#3 181462420#4 181462420#0 181462420#1 -1147413312#1 -1147413312#0"/>
    </vehicle>
    <vehicle id="41" depart="82.00">
        <route edges="1057185692#3 1057185692#4 1147413312#0 1147413312#1 181462420#2 181462420#3 1124992786#0 1124992786#1 1057131743#0 1057131743#1 1057131743#2 1147597430 1147597431#0 1147597431#1 1147597431#2 4612756#0 4612756#1"/>
    </vehicle>
    <vehicle id="42" depart="84.00">
        <route edges="-4612758#1 113308024#0 113308024#1 -113308024#1 -113308024#0"/>
    </vehicle>
    <vehicle id="43" depart="86.00">
        <route edges="53357051#0 53357051#1 -53357051#1 -53357051#0 -1079127198#1 -1079127198#0 181462420#3 181462420#4 181462420#0 181462420#1 -1147413312#1 -1147413312#0 -1057185692#4 -1057185692#3 -1057185692#2 -1057185692#1 -1057185692#0 1057185692#0 1057185692#1 1057185692#2 1057185692#3"/>
    </vehicle>
    <vehicle id="44" depart="88.00">
        <route edges="-1057185692#3 -1057185692#2 -1057185692#1 -1057185692#0 1057185692#0 1057185692#1 1057185692#2 1057185692#3 1057185692#4 1147413312#0 1147413312#1 181462420#2 181462420#3 1124992786#0 1124992786#1 1057131743#0 1057131743#1 1057131743#2 -1057131743#2"/>
    </vehicle>
    <vehicle id="45" depart="90.00">
        <route edges="-1057185692#4 -1057185692#3 -1057185692#2 -1057185692#1 -1057185692#0 1057185692#0 1057185692#1 1057185692#2 1057185692#3 1057185692#4 1147413312#0 1147413312#1 181462420#2 181462420#3 1124992786#0 1124992786#1 1057131743#0 1057131743#1 1057131743#2 1147413314 4612758#0 113308024#0"/>
    </vehicle>
    <vehicle id="46" depart="92.00">
        <route edges="1147597430 1147597431#0 1147597431#1 1147597431#2 -113308024#1 -113308024#0 -4612758#0 -1147413314 -1057131743#2 -1057131743#1 -1057131743#0 -1124992786#1 -1124992786#0 181462420#4 181462420#0 181462420#1 181462420#2 181462420#3 1124992786#0 1124992786#1 1057131743#0"/>
    </vehicle>
    <vehicle id="47" depart="94.00">
        <route edges="-1057185692#1 -1057185692#0 1057185692#0 1057185692#1 1057185692#2 1057185692#3 1057185692#4 1147413312#0 1147413312#1 181462420#2 181462420#3 1124992786#0 1124992786#1 1057131743#0 1057131743#1 1057131743#2 1147597430 1147597431#0 1147597431#1 1147597431#2 4612756#0 4612756#1 -4612756#1 -4612756#0"/>
    </vehicle>
    <vehicle id="48" depart="96.00">
        <route edges="53357051#0 53357051#1 -53357051#1 -53357051#0 -1079127198#1 -1079127198#0 181462420#3 181462420#4 181462420#0 181462420#1 -1147413312#1 -1147413312#0 -1057185692#4 -1057185692#3 -1057185692#2 -1057185692#1 -1057185692#0 1057185692#0 1057185692#1 1057185692#2 1057185692#3 1057185692#4"/>
    </vehicle>
</routes>
