<configuration>
    <input>
        <net-file value="test.net.xml"/>
        <route-files value="simulation_500.rou.xml"/>
	<additional-files value="rsu_edge.add500.xml"/>
    </input>
    <time>
        <begin value="0"/>
        <end value="500"/>
    </time>
</configuration>