<configuration>
    <input>
        <net-file value="test.net.xml"/>
        <route-files value="simulation_1000.rou.xml"/>
        <additional-files value="rsu_edge.add1000.xml"/>
    </input>
    <time>
        <begin value="0"/>
        <end value="1000"/>
    </time>
</configuration>