<?xml version="1.0" encoding="UTF-8"?>

<!-- generated on 2025-06-20 12:09:21 by Eclipse SUMO netconvert Version 1.23.1
<netconvertConfiguration xmlns:xsi="http://www.w3.org/2001/XMLSchema-instance" xsi:noNamespaceSchemaLocation="http://sumo.dlr.de/xsd/netconvertConfiguration.xsd">

    <input>
        <type-files value="osmNetconvert.typ.xml"/>
        <osm-files value="map.osm"/>
    </input>

    <output>
        <output-file value="test.net.xml"/>
    </output>

    <projection>
        <proj.utm value="true"/>
    </projection>

    <report>
        <xml-validation value="never"/>
    </report>

</netconvertConfiguration>
-->

<net version="1.20" junctionCornerDetail="5" limitTurnSpeed="5.50" xmlns:xsi="http://www.w3.org/2001/XMLSchema-instance" xsi:noNamespaceSchemaLocation="http://sumo.dlr.de/xsd/net_file.xsd">

    <location netOffset="-391781.75,-5817143.37" convBoundary="0.00,0.00,1060.76,1471.08" origBoundary="13.405574,52.493890,13.421607,52.507004" projParameter="+proj=utm +zone=33 +ellps=WGS84 +datum=WGS84 +units=m +no_defs"/>

    <type id="highway.cycleway" priority="1" numLanes="1" speed="33.33" allow="bicycle" oneway="0" width="2.00"/>
    <type id="highway.footway" priority="1" numLanes="1" speed="30.34" allow="pedestrian" oneway="1" width="2.00"/>
    <type id="highway.path" priority="1" numLanes="1" speed="5.56" allow="pedestrian bicycle" oneway="0" width="2.00"/>
    <type id="highway.residential" priority="3" numLanes="1" speed="31.67" disallow="tram rail_urban rail rail_electric rail_fast ship container cable_car subway aircraft wheelchair scooter drone" oneway="0"/>
    <type id="highway.secondary" priority="11" numLanes="1" speed="30.21" disallow="tram rail_urban rail rail_electric rail_fast ship container cable_car subway aircraft wheelchair scooter drone" oneway="0"/>
    <type id="highway.service" priority="1" numLanes="1" speed="32.89" allow="pedestrian delivery bicycle" oneway="0"/>
    <type id="highway.steps" priority="1" numLanes="1" speed="33.23" allow="pedestrian" oneway="1" width="2.00"/>
    <type id="highway.tertiary" priority="10" numLanes="1" speed="31.77" disallow="tram rail_urban rail rail_electric rail_fast ship container cable_car subway aircraft wheelchair scooter drone" oneway="0"/>
    <type id="highway.track" priority="1" numLanes="1" speed="32.34" allow="pedestrian motorcycle moped bicycle" oneway="0"/>
    <type id="railway.subway" priority="18" numLanes="1" speed="29.78" allow="subway" oneway="1"/>

    <edge id=":10287654870_0" function="internal">
        <lane id=":10287654870_0_0" index="0" disallow="pedestrian tram rail_urban rail rail_electric rail_fast ship container cable_car subway aircraft wheelchair scooter drone" speed="31.11" length="0.30" shape="400.09,1075.71 399.82,1075.84"/>
    </edge>
    <edge id=":10287654870_1" function="internal">
        <lane id=":10287654870_1_0" index="0" disallow="pedestrian tram rail_urban rail rail_electric rail_fast ship container cable_car subway aircraft wheelchair scooter drone" speed="33.33" length="0.30" shape="398.40,1072.98 398.67,1072.84"/>
    </edge>
    <edge id=":10287654871_0" function="internal">
        <lane id=":10287654871_0_0" index="0" allow="pedestrian delivery bicycle" speed="33.65" length="4.67" shape="411.12,1080.35 410.81,1081.76 410.20,1082.42 409.31,1082.33 408.14,1081.50"/>
    </edge>
    <edge id=":10287654872_0" function="internal">
        <lane id=":10287654872_0_0" index="0" allow="pedestrian delivery bicycle" speed="35.56" length="4.39" shape="408.06,1081.31 406.32,1077.29"/>
    </edge>
    <edge id=":10287654872_1" function="internal">
        <lane id=":10287654872_1_0" index="0" allow="pedestrian delivery bicycle" speed="33.65" length="1.44" shape="408.06,1081.31 408.38,1079.91"/>
    </edge>
    <edge id=":10287654872_4" function="internal">
        <lane id=":10287654872_4_0" index="0" allow="pedestrian delivery bicycle" speed="33.65" length="3.23" shape="408.38,1079.91 408.98,1079.25 409.87,1079.33 411.05,1080.16"/>
    </edge>
    <edge id=":10287654872_2" function="internal">
        <lane id=":10287654872_2_0" index="0" allow="pedestrian delivery bicycle" speed="35.56" length="4.62" shape="409.21,1075.92 411.05,1080.16"/>
    </edge>
    <edge id=":10287654872_3" function="internal">
        <lane id=":10287654872_3_0" index="0" allow="pedestrian delivery bicycle" speed="33.65" length="1.44" shape="409.21,1075.92 409.00,1077.35"/>
    </edge>
    <edge id=":10287654872_5" function="internal">
        <lane id=":10287654872_5_0" index="0" allow="pedestrian delivery bicycle" speed="33.65" length="3.23" shape="409.00,1077.35 408.45,1078.05 407.55,1078.03 406.32,1077.29"/>
    </edge>
    <edge id=":10676691802_0" function="internal">
        <lane id=":10676691802_0_0" index="0" disallow="pedestrian tram rail_urban rail rail_electric rail_fast ship container cable_car subway aircraft wheelchair scooter drone" speed="33.89" length="0.29" width="4.13" shape="252.18,1150.46 251.91,1150.58"/>
    </edge>
    <edge id=":10676691802_1" function="internal">
        <lane id=":10676691802_1_0" index="0" disallow="pedestrian tram rail_urban rail rail_electric rail_fast ship container cable_car subway aircraft wheelchair scooter drone" speed="34.89" length="0.30" width="4.13" shape="248.37,1143.12 248.65,1142.99"/>
        <lane id=":10676691802_1_1" index="1" disallow="pedestrian tram rail_urban rail rail_electric rail_fast ship container cable_car subway aircraft wheelchair scooter drone" speed="35.89" length="0.30" width="4.13" shape="250.14,1146.85 250.41,1146.72"/>
    </edge>
    <edge id=":10676691803_0" function="internal">
        <lane id=":10676691803_0_0" index="0" disallow="pedestrian tram rail_urban rail rail_electric rail_fast ship container cable_car subway aircraft wheelchair scooter drone" speed="45.89" length="0.59" width="4.13" shape="259.24,1147.06 259.78,1146.80"/>
    </edge>
    <edge id=":10676691803_1" function="internal">
        <lane id=":10676691803_1_0" index="0" disallow="pedestrian tram rail_urban rail rail_electric rail_fast ship container cable_car subway aircraft wheelchair scooter drone" speed="29.89" length="0.58" width="4.13" shape="256.13,1139.38 255.61,1139.63"/>
        <lane id=":10676691803_1_1" index="1" disallow="pedestrian tram rail_urban rail rail_electric rail_fast ship container cable_car subway aircraft wheelchair scooter drone" speed="30.89" length="0.58" width="4.13" shape="257.95,1143.09 257.43,1143.34"/>
    </edge>
    <edge id=":10676691862_0" function="internal">
        <lane id=":10676691862_0_0" index="0" disallow="pedestrian tram rail_urban rail rail_electric rail_fast ship container cable_car subway aircraft wheelchair scooter drone" speed="38.33" length="0.29" shape="451.81,1051.25 451.55,1051.37"/>
    </edge>
    <edge id=":10676691862_1" function="internal">
        <lane id=":10676691862_1_0" index="0" disallow="pedestrian tram rail_urban rail rail_electric rail_fast ship container cable_car subway aircraft wheelchair scooter drone" speed="38.33" length="0.31" shape="450.18,1048.48 450.46,1048.35"/>
    </edge>
    <edge id=":10678191202_0" function="internal">
        <lane id=":10678191202_0_0" index="0" allow="pedestrian delivery bicycle" speed="33.65" length="4.67" shape="473.01,1024.53 472.77,1025.95 472.21,1026.64 471.31,1026.61 470.09,1025.84"/>
    </edge>
    <edge id=":10678191203_0" function="internal">
        <lane id=":10678191203_0_0" index="0" allow="pedestrian delivery bicycle" speed="35.56" length="0.32" shape="467.52,1020.14 467.40,1019.84"/>
    </edge>
    <edge id=":10678191203_1" function="internal">
        <lane id=":10678191203_1_0" index="0" allow="pedestrian delivery bicycle" speed="35.56" length="1.64" shape="469.55,1017.47 469.89,1017.81 470.09,1018.07 470.24,1018.38 470.44,1018.82"/>
    </edge>
    <edge id=":10678191204_0" function="internal">
        <lane id=":10678191204_0_0" index="0" allow="pedestrian delivery bicycle" speed="35.24" length="5.81" width="5.50" shape="467.25,1019.71 465.82,1018.69 464.50,1018.34 463.31,1018.65 462.23,1019.63"/>
    </edge>
    <edge id=":10678191204_1" function="internal">
        <lane id=":10678191204_1_0" index="0" allow="pedestrian delivery bicycle" speed="36.95" length="12.67" width="5.50" shape="467.25,1019.71 464.37,1016.62 462.81,1013.78 462.56,1011.18 463.63,1008.82"/>
    </edge>
    <edge id=":10678191204_2" function="internal">
        <lane id=":10678191204_2_0" index="0" allow="pedestrian delivery bicycle" speed="33.65" length="4.67" shape="467.25,1019.71 466.90,1018.31 467.14,1017.45 467.97,1017.12 469.40,1017.34"/>
    </edge>
    <edge id=":10678191204_3" function="internal">
        <lane id=":10678191204_3_0" index="0" allow="pedestrian delivery bicycle" speed="35.84" length="5.94" shape="467.99,1012.18 467.42,1013.36 467.46,1014.61 468.12,1015.94 469.40,1017.34"/>
    </edge>
    <edge id=":10678191204_4" function="internal">
        <lane id=":10678191204_4_0" index="0" disallow="tram rail_urban rail rail_electric rail_fast ship container cable_car subway aircraft wheelchair scooter drone" speed="38.33" length="9.41" width="5.50" shape="467.99,1012.18 462.23,1019.63"/>
    </edge>
    <edge id=":10678191204_5" function="internal">
        <lane id=":10678191204_5_0" index="0" disallow="tram rail_urban rail rail_electric rail_fast ship container cable_car subway aircraft wheelchair scooter drone" speed="38.33" length="9.40" width="5.50" shape="457.88,1016.26 463.63,1008.82"/>
    </edge>
    <edge id=":10678191204_6" function="internal">
        <lane id=":10678191204_6_0" index="0" allow="pedestrian delivery bicycle" speed="36.95" length="4.76" shape="457.88,1016.26 460.20,1014.27 461.87,1013.96"/>
    </edge>
    <edge id=":10678191204_7" function="internal">
        <lane id=":10678191204_7_0" index="0" allow="pedestrian delivery bicycle" speed="36.95" length="8.54" shape="461.87,1013.96 462.89,1013.78 465.96,1014.80 469.40,1017.34"/>
    </edge>
    <edge id=":10678191234_0" function="internal">
        <lane id=":10678191234_0_0" index="0" disallow="tram rail_urban rail rail_electric rail_fast ship container cable_car subway aircraft wheelchair scooter drone" speed="34.79" length="8.03" width="5.50" shape="529.86,925.81 532.22,925.05 533.73,925.38 534.37,926.77 534.16,929.24"/>
    </edge>
    <edge id=":10678191437_0" function="internal">
        <lane id=":10678191437_0_0" index="0" disallow="pedestrian tram rail_urban rail rail_electric rail_fast ship container cable_car subway aircraft wheelchair scooter drone" speed="33.65" length="4.67" shape="385.46,1175.88 385.28,1177.31 384.75,1178.03 383.85,1178.03 382.60,1177.31"/>
    </edge>
    <edge id=":11094280077_0" function="internal">
        <lane id=":11094280077_0_0" index="0" disallow="pedestrian tram rail_urban rail rail_electric rail_fast ship container cable_car subway aircraft wheelchair scooter drone" speed="33.89" length="5.06" width="4.13" shape="310.88,1122.45 306.34,1124.69"/>
    </edge>
    <edge id=":11094280077_1" function="internal">
        <lane id=":11094280077_1_0" index="0" disallow="pedestrian tram rail_urban rail rail_electric rail_fast ship container cable_car subway aircraft wheelchair scooter drone" speed="33.89" length="5.06" width="4.13" shape="302.68,1117.27 307.21,1115.04"/>
        <lane id=":11094280077_1_1" index="1" disallow="pedestrian tram rail_urban rail rail_electric rail_fast ship container cable_car subway aircraft wheelchair scooter drone" speed="33.89" length="5.06" width="4.13" shape="304.51,1120.98 309.04,1118.74"/>
    </edge>
    <edge id=":11094280081_0" function="internal">
        <lane id=":11094280081_0_0" index="0" disallow="pedestrian tram rail_urban rail rail_electric rail_fast ship container cable_car subway aircraft wheelchair scooter drone" speed="33.89" length="5.19" shape="387.39,1082.00 382.77,1084.36"/>
    </edge>
    <edge id=":11094280081_1" function="internal">
        <lane id=":11094280081_1_0" index="0" disallow="pedestrian tram rail_urban rail rail_electric rail_fast ship container cable_car subway aircraft wheelchair scooter drone" speed="38.33" length="5.20" shape="381.33,1081.50 385.97,1079.14"/>
    </edge>
    <edge id=":1136575109_0" function="internal">
        <lane id=":1136575109_0_0" index="0" allow="delivery bicycle" speed="35.02" length="5.02" shape="405.87,1076.34 405.11,1075.19 404.16,1074.57 403.04,1074.47 401.73,1074.90"/>
    </edge>
    <edge id=":1136575109_1" function="internal">
        <lane id=":1136575109_1_0" index="0" allow="delivery bicycle" speed="36.86" length="10.23" shape="405.87,1076.34 405.03,1073.66 405.26,1071.36 406.55,1069.45 408.90,1067.93"/>
    </edge>
    <edge id=":1136575109_2" function="internal">
        <lane id=":1136575109_2_0" index="0" allow="pedestrian delivery bicycle" speed="33.65" length="4.67" shape="405.87,1076.34 406.08,1074.92 406.63,1074.21 407.52,1074.23 408.76,1074.97"/>
    </edge>
    <edge id=":1136575109_3" function="internal">
        <lane id=":1136575109_3_0" index="0" allow="delivery bicycle" speed="35.04" length="5.03" shape="410.24,1070.83 409.09,1071.58 408.46,1072.52 408.35,1073.65 408.76,1074.97"/>
    </edge>
    <edge id=":1136575109_4" function="internal">
        <lane id=":1136575109_4_0" index="0" disallow="pedestrian tram rail_urban rail rail_electric rail_fast ship container cable_car subway aircraft wheelchair scooter drone" speed="38.33" length="9.44" shape="410.24,1070.83 401.73,1074.90"/>
    </edge>
    <edge id=":1136575109_5" function="internal">
        <lane id=":1136575109_5_0" index="0" disallow="pedestrian tram rail_urban rail rail_electric rail_fast ship container cable_car subway aircraft wheelchair scooter drone" speed="38.33" length="9.52" shape="400.31,1072.03 408.90,1067.93"/>
    </edge>
    <edge id=":1136575109_6" function="internal">
        <lane id=":1136575109_6_0" index="0" allow="delivery bicycle" speed="36.85" length="3.36" shape="400.31,1072.03 402.98,1071.16 403.52,1071.20"/>
    </edge>
    <edge id=":1136575109_7" function="internal">
        <lane id=":1136575109_7_0" index="0" allow="delivery bicycle" speed="36.85" length="6.89" shape="403.52,1071.20 405.28,1071.36 407.21,1072.63 408.76,1074.97"/>
    </edge>
    <edge id=":11389558677_0" function="internal">
        <lane id=":11389558677_0_0" index="0" allow="pedestrian delivery bicycle" speed="35.56" length="5.11" shape="285.93,1003.99 281.42,1006.39"/>
    </edge>
    <edge id=":11389558677_1" function="internal">
        <lane id=":11389558677_1_0" index="0" allow="pedestrian delivery bicycle" speed="33.65" length="1.44" shape="285.93,1003.99 284.50,1003.85"/>
    </edge>
    <edge id=":11389558677_4" function="internal">
        <lane id=":11389558677_4_0" index="0" allow="pedestrian delivery bicycle" speed="33.65" length="3.23" shape="284.50,1003.85 283.77,1003.33 283.74,1002.44 284.43,1001.17"/>
    </edge>
    <edge id=":11389558677_2" function="internal">
        <lane id=":11389558677_2_0" index="0" allow="pedestrian delivery bicycle" speed="35.56" length="5.11" shape="279.92,1003.57 284.43,1001.17"/>
    </edge>
    <edge id=":11389558677_3" function="internal">
        <lane id=":11389558677_3_0" index="0" allow="pedestrian delivery bicycle" speed="33.65" length="1.44" shape="279.92,1003.57 281.35,1003.71"/>
    </edge>
    <edge id=":11389558677_5" function="internal">
        <lane id=":11389558677_5_0" index="0" allow="pedestrian delivery bicycle" speed="33.65" length="3.23" shape="281.35,1003.71 282.08,1004.23 282.11,1005.12 281.42,1006.39"/>
    </edge>
    <edge id=":11390208520_0" function="internal">
        <lane id=":11390208520_0_0" index="0" allow="pedestrian delivery bicycle" speed="35.56" length="3.92" shape="430.09,1052.44 426.92,1050.13"/>
    </edge>
    <edge id=":11390208520_1" function="internal">
        <lane id=":11390208520_1_0" index="0" allow="pedestrian delivery bicycle" speed="32.65" length="1.44" shape="430.09,1052.44 429.58,1051.09"/>
    </edge>
    <edge id=":11390208520_4" function="internal">
        <lane id=":11390208520_4_0" index="0" allow="pedestrian delivery bicycle" speed="3.65" length="32.23" shape="429.58,1051.09 429.72,1050.21 430.51,1049.79 431.95,1049.84"/>
    </edge>
    <edge id=":11390208520_2" function="internal">
        <lane id=":11390208520_2_0" index="0" allow="pedestrian delivery bicycle" speed="5.56" length="32.89" shape="428.80,1047.54 431.95,1049.84"/>
    </edge>
    <edge id=":11390208520_3" function="internal">
        <lane id=":11390208520_3_0" index="0" allow="pedestrian delivery bicycle" speed="3.65" length="13.44" shape="428.80,1047.54 429.30,1048.90"/>
    </edge>
    <edge id=":11390208520_5" function="internal">
        <lane id=":11390208520_5_0" index="0" allow="pedestrian delivery bicycle" speed="3.65" length="23.23" shape="429.30,1048.90 429.15,1049.78 428.36,1050.19 426.92,1050.13"/>
    </edge>
    <edge id=":11390208521_0" function="internal">
        <lane id=":11390208521_0_0" index="0" disallow="tram rail_urban rail rail_electric rail_fast ship container cable_car subway aircraft wheelchair scooter drone" speed="38.33" length="14.49" width="5.50" shape="445.33,1041.22 436.34,1052.57"/>
    </edge>
    <edge id=":11390208521_1" function="internal">
        <lane id=":11390208521_1_0" index="0" disallow="tram rail_urban rail rail_electric rail_fast ship container cable_car subway aircraft wheelchair scooter drone" speed="28.33" length="12.24" width="5.50" shape="433.42,1047.40 441.02,1037.81"/>
    </edge>
    <edge id=":11390208522_0" function="internal">
        <lane id=":11390208522_0_0" index="0" disallow="tram rail_urban rail rail_electric rail_fast ship container cable_car subway aircraft wheelchair scooter drone" speed="28.33" length="2.95" shape="457.11,1040.54 455.41,1038.12"/>
    </edge>
    <edge id=":11390208522_1" function="internal">
        <lane id=":11390208522_1_0" index="0" disallow="tram rail_urban rail rail_electric rail_fast ship container cable_car subway aircraft wheelchair scooter drone" speed="28.33" length="2.96" shape="458.03,1036.27 459.73,1038.71"/>
    </edge>
    <edge id=":11391614878_0" function="internal">
        <lane id=":11391614878_0_0" index="0" allow="pedestrian delivery bicycle" speed="35.56" length="3.88" shape="352.56,1159.11 348.95,1160.54"/>
    </edge>
    <edge id=":11391614878_1" function="internal">
        <lane id=":11391614878_1_0" index="0" allow="pedestrian delivery bicycle" speed="33.65" length="1.44" shape="352.56,1159.11 351.15,1158.81"/>
    </edge>
    <edge id=":11391614878_4" function="internal">
        <lane id=":11391614878_4_0" index="0" allow="pedestrian delivery bicycle" speed="33.65" length="3.23" shape="351.15,1158.81 350.48,1158.21 350.56,1157.32 351.38,1156.14"/>
    </edge>
    <edge id=":11391614878_2" function="internal">
        <lane id=":11391614878_2_0" index="0" allow="pedestrian delivery bicycle" speed="25.56" length="3.89" shape="347.76,1157.57 351.38,1156.14"/>
    </edge>
    <edge id=":11391614878_3" function="internal">
        <lane id=":11391614878_3_0" index="0" allow="pedestrian delivery bicycle" speed="33.65" length="1.44" shape="347.76,1157.57 349.18,1157.87"/>
    </edge>
    <edge id=":11391614878_5" function="internal">
        <lane id=":11391614878_5_0" index="0" allow="pedestrian delivery bicycle" speed="33.65" length="3.23" shape="349.18,1157.87 349.84,1158.46 349.77,1159.35 348.95,1160.54"/>
    </edge>
    <edge id=":12137333661_0" function="internal">
        <lane id=":12137333661_0_0" index="0" allow="bicycle" speed="42.93" length="3.55" width="2.00" shape="270.12,1150.08 269.64,1149.40 268.96,1149.06 268.11,1149.08 267.06,1149.45"/>
    </edge>
    <edge id=":12137333661_1" function="internal">
        <lane id=":12137333661_1_0" index="0" disallow="pedestrian tram rail_urban rail rail_electric rail_fast ship container cable_car subway aircraft wheelchair scooter drone" speed="28.33" length="2.85" width="7.00" shape="272.40,1149.04 271.21,1146.45"/>
    </edge>
    <edge id=":12137333661_2" function="internal">
        <lane id=":12137333661_2_0" index="0" allow="bicycle" speed="5.56" length="10.04" width="2.00" shape="276.11,1145.10 267.06,1149.45"/>
    </edge>
    <edge id=":12137333661_3" function="internal">
        <lane id=":12137333661_3_0" index="0" allow="bicycle" speed="5.87" length="7.67" width="2.00" shape="276.11,1145.10 274.67,1145.79 272.34,1146.80 270.11,1147.57 268.94,1147.49"/>
    </edge>
    <edge id=":12137333662_0" function="internal">
        <lane id=":12137333662_0_0" index="0" allow="bicycle" speed="5.56" length="0.33" width="2.00" shape="282.74,1141.97 282.64,1141.98 282.58,1141.99 282.51,1142.02 282.43,1142.06"/>
    </edge>
    <edge id=":12137333665_0" function="internal">
        <lane id=":12137333665_0_0" index="0" allow="bicycle" speed="5.56" length="0.34" width="2.00" shape="309.34,1129.90 309.67,1129.81"/>
    </edge>
    <edge id=":12137333666_0" function="internal">
        <lane id=":12137333666_0_0" index="0" allow="bicycle" speed="5.56" length="4.40" width="2.00" shape="313.46,1127.83 309.53,1129.81"/>
    </edge>
    <edge id=":12137333667_0" function="internal">
        <lane id=":12137333667_0_0" index="0" allow="bicycle" speed="5.56" length="4.86" width="2.00" shape="260.48,1152.61 256.09,1154.71"/>
    </edge>
    <edge id=":12137333669_0" function="internal">
        <lane id=":12137333669_0_0" index="0" allow="bicycle" speed="5.56" length="0.10" width="1.00" shape="249.00,1140.58 249.00,1140.58"/>
    </edge>
    <edge id=":12137333670_0" function="internal">
        <lane id=":12137333670_0_0" index="0" allow="bicycle" speed="5.56" length="5.04" width="1.00" shape="249.16,1140.51 253.77,1138.47"/>
    </edge>
    <edge id=":12137333671_0" function="internal">
        <lane id=":12137333671_0_0" index="0" allow="pedestrian delivery bicycle" speed="5.56" length="0.62" shape="257.00,1136.98 256.73,1136.42"/>
    </edge>
    <edge id=":12137333671_1" function="internal">
        <lane id=":12137333671_1_0" index="0" allow="bicycle" speed="5.17" length="5.35" width="1.00" shape="257.99,1136.50 258.41,1135.82 259.82,1135.18 261.49,1134.63 262.66,1134.21"/>
    </edge>
    <edge id=":12137333671_2" function="internal">
        <lane id=":12137333671_2_0" index="0" allow="pedestrian delivery bicycle" speed="3.65" length="4.67" shape="257.00,1136.98 257.19,1135.55 257.73,1134.84 258.63,1134.85 259.87,1135.57"/>
    </edge>
    <edge id=":12137333671_3" function="internal">
        <lane id=":12137333671_3_0" index="0" allow="bicycle" speed="3.82" length="2.41" width="1.00" shape="260.59,1134.53 260.97,1134.92 261.45,1134.87 262.02,1134.57 262.66,1134.21"/>
    </edge>
    <edge id=":12137333671_4" function="internal">
        <lane id=":12137333671_4_0" index="0" allow="pedestrian delivery bicycle" speed="5.56" length="0.62" shape="259.60,1135.01 259.87,1135.57"/>
    </edge>
    <edge id=":12137333671_5" function="internal">
        <lane id=":12137333671_5_0" index="0" allow="pedestrian delivery bicycle" speed="3.65" length="4.67" shape="259.60,1135.01 259.41,1136.44 258.87,1137.15 257.97,1137.15 256.73,1136.42"/>
    </edge>
    <edge id=":12137333671_6" function="internal">
        <lane id=":12137333671_6_0" index="0" allow="bicycle" speed="3.37" length="2.40" width="1.00" shape="254.17,1138.27 254.86,1138.01 255.46,1137.77 255.81,1137.44 255.74,1136.91"/>
    </edge>
    <edge id=":12137333671_7" function="internal">
        <lane id=":12137333671_7_0" index="0" allow="bicycle" speed="5.56" length="9.41" width="1.00" shape="254.17,1138.27 262.66,1134.21"/>
    </edge>
    <edge id=":12137333671_8" function="internal">
        <lane id=":12137333671_8_0" index="0" allow="bicycle" speed="5.56" length="7.51" width="1.00" shape="254.17,1138.27 255.54,1137.47 257.69,1136.18 259.76,1135.15 260.86,1135.09"/>
    </edge>
    <edge id=":12137333672_0" function="internal">
        <lane id=":12137333672_0_0" index="0" allow="bicycle" speed="5.56" length="0.30" width="1.00" shape="275.62,1127.99 275.89,1127.86"/>
    </edge>
    <edge id=":12137333673_0" function="internal">
        <lane id=":12137333673_0_0" index="0" allow="bicycle" speed="5.56" length="5.02" width="1.00" shape="301.87,1115.54 306.41,1113.38"/>
    </edge>
    <edge id=":12137333676_0" function="internal">
        <lane id=":12137333676_0_0" index="0" allow="bicycle" speed="4.72" length="4.56" width="1.00" shape="267.11,1131.04 271.53,1129.95"/>
    </edge>
    <edge id=":12137333676_1" function="internal">
        <lane id=":12137333676_1_0" index="0" allow="bicycle" speed="2.93" length="3.07" width="2.00" shape="267.11,1131.04 267.54,1130.20 268.04,1129.88 268.59,1130.09 269.20,1130.81"/>
    </edge>
    <edge id=":12137333676_2" function="internal">
        <lane id=":12137333676_2_0" index="0" allow="bicycle" speed="5.56" length="7.00" width="1.00" shape="265.22,1132.98 271.53,1129.95"/>
    </edge>
    <edge id=":12137333676_3" function="internal">
        <lane id=":12137333676_3_0" index="0" allow="bicycle" speed="4.47" length="4.53" width="1.00" shape="265.22,1132.98 269.20,1130.81"/>
    </edge>
    <edge id=":12137333678_0" function="internal">
        <lane id=":12137333678_0_0" index="0" allow="bicycle" speed="5.56" length="0.15" width="2.00" shape="260.75,1152.48 260.61,1152.54"/>
    </edge>
    <edge id=":1285251472_0" function="internal">
        <lane id=":1285251472_0_0" index="0" disallow="pedestrian tram rail_urban rail rail_electric rail_fast ship container cable_car subway aircraft wheelchair scooter drone" speed="8.33" length="14.56" shape="468.75,1043.29 455.59,1049.50"/>
    </edge>
    <edge id=":1285251472_1" function="internal">
        <lane id=":1285251472_1_0" index="0" disallow="pedestrian tram rail_urban rail rail_electric rail_fast ship container cable_car subway aircraft wheelchair scooter drone" speed="8.18" length="4.15" shape="468.75,1043.29 465.30,1044.44 464.79,1044.43"/>
    </edge>
    <edge id=":1285251472_2" function="internal">
        <lane id=":1285251472_2_0" index="0" disallow="pedestrian tram rail_urban rail rail_electric rail_fast ship container cable_car subway aircraft wheelchair scooter drone" speed="3.65" length="1.44" shape="468.75,1043.29 467.33,1043.09"/>
    </edge>
    <edge id=":1285251472_9" function="internal">
        <lane id=":1285251472_9_0" index="0" disallow="pedestrian tram rail_urban rail rail_electric rail_fast ship container cable_car subway aircraft wheelchair scooter drone" speed="8.18" length="8.90" shape="464.79,1044.43 462.23,1044.39 459.53,1043.15 457.22,1040.70"/>
    </edge>
    <edge id=":1285251472_10" function="internal">
        <lane id=":1285251472_10_0" index="0" disallow="pedestrian tram rail_urban rail rail_electric rail_fast ship container cable_car subway aircraft wheelchair scooter drone" speed="3.65" length="3.23" shape="467.33,1043.09 466.62,1042.54 466.63,1041.65 467.37,1040.41"/>
    </edge>
    <edge id=":1285251472_3" function="internal">
        <lane id=":1285251472_3_0" index="0" disallow="pedestrian tram rail_urban rail rail_electric rail_fast ship container cable_car subway aircraft wheelchair scooter drone" speed="6.71" length="8.47" shape="459.84,1038.87 461.32,1040.41 463.07,1041.18 465.09,1041.18 467.37,1040.41"/>
    </edge>
    <edge id=":1285251472_4" function="internal">
        <lane id=":1285251472_4_0" index="0" disallow="pedestrian tram rail_urban rail rail_electric rail_fast ship container cable_car subway aircraft wheelchair scooter drone" speed="27.40" length="13.59" shape="459.84,1038.87 461.29,1041.98 461.06,1044.79 459.16,1047.30 455.59,1049.50"/>
    </edge>
    <edge id=":1285251472_5" function="internal">
        <lane id=":1285251472_5_0" index="0" disallow="tram rail_urban rail rail_electric rail_fast ship container cable_car subway aircraft wheelchair scooter drone" speed="3.65" length="4.67" shape="459.84,1038.87 459.87,1040.31 459.45,1041.10 458.56,1041.23 457.22,1040.70"/>
    </edge>
    <edge id=":1285251472_6" function="internal">
        <lane id=":1285251472_6_0" index="0" disallow="pedestrian tram rail_urban rail rail_electric rail_fast ship container cable_car subway aircraft wheelchair scooter drone" speed="5.76" length="7.77" shape="454.24,1046.59 456.44,1045.29 457.66,1043.88 457.93,1042.35 457.22,1040.70"/>
    </edge>
    <edge id=":1285251472_7" function="internal">
        <lane id=":1285251472_7_0" index="0" disallow="pedestrian tram rail_urban rail rail_electric rail_fast ship container cable_car subway aircraft wheelchair scooter drone" speed="8.33" length="14.51" shape="454.24,1046.59 467.37,1040.41"/>
    </edge>
    <edge id=":1285251472_8" function="internal">
        <lane id=":1285251472_8_0" index="0" disallow="pedestrian tram rail_urban rail rail_electric rail_fast ship container cable_car subway aircraft wheelchair scooter drone" speed="33.65" length="1.44" shape="454.24,1046.59 455.66,1046.81"/>
    </edge>
    <edge id=":1285251472_11" function="internal">
        <lane id=":1285251472_11_0" index="0" disallow="pedestrian tram rail_urban rail rail_electric rail_fast ship container cable_car subway aircraft wheelchair scooter drone" speed="33.65" length="3.23" shape="455.66,1046.81 456.36,1047.37 456.34,1048.27 455.59,1049.50"/>
    </edge>
    <edge id=":1285251475_0" function="internal">
        <lane id=":1285251475_0_0" index="0" disallow="pedestrian tram rail_urban rail rail_electric rail_fast ship container cable_car subway aircraft wheelchair scooter drone" speed="8.33" length="3.83" shape="419.09,1066.72 415.62,1068.34"/>
    </edge>
    <edge id=":1285251475_1" function="internal">